<?xml version="1.0" encoding="UTF-8"?>

<!-- generated on 2023-01-13 23:56:22 by Eclipse SUMO netedit Version 1.14.1
<configuration xmlns:xsi="http://www.w3.org/2001/XMLSchema-instance" xsi:noNamespaceSchemaLocation="http://sumo.dlr.de/xsd/netconvertConfiguration.xsd">

    <input>
        <sumo-net-file value="C:\Users\RenatoPC\Desktop\Drive\7moCiclo\Multiagentes\Trabajo%20Final\Codigo%20Github\sistemaMultiagenteDeRepartidores\Red.net.xml"/>
    </input>

    <output>
        <output-file value="C:\Users\RenatoPC\Desktop\Drive\7moCiclo\Multiagentes\Trabajo%20Final\Codigo%20Github\sistemaMultiagenteDeRepartidores\Red.net.xml"/>
    </output>

    <processing>
        <geometry.min-radius.fix.railways value="false"/>
        <geometry.max-grade.fix value="false"/>
        <offset.disable-normalization value="true"/>
        <lefthand value="false"/>
    </processing>

    <junctions>
        <no-turnarounds value="true"/>
        <junctions.corner-detail value="5"/>
        <junctions.limit-turn-speed value="5.5"/>
        <rectangular-lane-cut value="false"/>
    </junctions>

    <pedestrian>
        <walkingareas value="false"/>
    </pedestrian>

</configuration>
-->

<net version="1.9" junctionCornerDetail="5" limitTurnSpeed="5.50" xmlns:xsi="http://www.w3.org/2001/XMLSchema-instance" xsi:noNamespaceSchemaLocation="http://sumo.dlr.de/xsd/net_file.xsd">

    <location netOffset="0.00,0.00" convBoundary="-133.96,-33.04,123.60,141.41" origBoundary="-10000000000.00,-10000000000.00,10000000000.00,10000000000.00" projParameter="!"/>

    <edge id=":J1_0" function="internal">
        <lane id=":J1_0_0" index="0" speed="3.65" length="4.67" shape="-120.66,123.04 -122.10,123.06 -122.89,122.63 -123.01,121.75 -122.48,120.40"/>
    </edge>
    <edge id=":J10_0" function="internal">
        <lane id=":J10_0_0" index="0" speed="13.89" length="19.67" shape="99.40,15.48 96.76,19.10 94.24,23.84 92.25,28.82 91.24,33.17"/>
    </edge>
    <edge id=":J10_1" function="internal">
        <lane id=":J10_1_0" index="0" speed="13.89" length="21.87" shape="99.40,15.48 95.95,18.85 91.33,22.87 86.56,26.68 82.61,29.44"/>
    </edge>
    <edge id=":J10_2" function="internal">
        <lane id=":J10_2_0" index="0" speed="10.56" length="20.25" shape="99.40,15.48 95.12,19.16 90.65,21.07 86.00,21.20 81.17,19.57"/>
    </edge>
    <edge id=":J10_3" function="internal">
        <lane id=":J10_3_0" index="0" speed="7.39" length="18.65" shape="99.40,15.48 94.94,19.32 91.56,19.96 89.24,17.42 87.99,11.67"/>
    </edge>
    <edge id=":J10_4" function="internal">
        <lane id=":J10_4_0" index="0" speed="5.50" length="9.59" shape="91.17,11.36 91.82,14.31 93.01,15.62 94.75,15.29 97.04,13.32"/>
    </edge>
    <edge id=":J10_5" function="internal">
        <lane id=":J10_5_0" index="0" speed="13.89" length="21.83" shape="91.17,11.36 91.46,16.17 91.57,22.26 91.51,28.36 91.24,33.17"/>
    </edge>
    <edge id=":J10_6" function="internal">
        <lane id=":J10_6_0" index="0" speed="11.84" length="6.54" shape="91.17,11.36 91.08,17.03 90.83,17.86"/>
    </edge>
    <edge id=":J10_7" function="internal">
        <lane id=":J10_7_0" index="0" speed="7.56" length="6.16" shape="91.17,11.36 91.06,17.13 90.89,17.47"/>
    </edge>
    <edge id=":J10_20" function="internal">
        <lane id=":J10_20_0" index="0" speed="11.84" length="14.64" shape="90.83,17.86 89.63,21.94 86.80,26.07 82.61,29.44"/>
    </edge>
    <edge id=":J10_21" function="internal">
        <lane id=":J10_21_0" index="0" speed="7.56" length="11.89" shape="90.89,17.47 89.36,20.43 86.06,21.24 81.17,19.57"/>
    </edge>
    <edge id=":J10_8" function="internal">
        <lane id=":J10_8_0" index="0" speed="5.85" length="10.21" shape="82.62,16.72 85.27,17.59 87.05,17.03 87.95,15.06 87.99,11.67"/>
    </edge>
    <edge id=":J10_9" function="internal">
        <lane id=":J10_9_0" index="0" speed="9.45" length="16.05" shape="82.62,16.72 86.41,17.98 90.07,17.83 93.61,16.28 97.04,13.32"/>
    </edge>
    <edge id=":J10_10" function="internal">
        <lane id=":J10_10_0" index="0" speed="11.01" length="19.85" shape="82.62,16.72 86.82,19.62 89.65,23.32 91.13,27.84 91.24,33.17"/>
    </edge>
    <edge id=":J10_11" function="internal">
        <lane id=":J10_11_0" index="0" speed="7.51" length="17.58" shape="82.62,16.72 86.87,19.68 88.28,22.79 86.86,26.05 82.61,29.44"/>
    </edge>
    <edge id=":J10_12" function="internal">
        <lane id=":J10_12_0" index="0" speed="5.80" length="9.87" shape="80.94,26.72 83.38,24.78 84.23,22.95 83.49,21.21 81.17,19.57"/>
    </edge>
    <edge id=":J10_13" function="internal">
        <lane id=":J10_13_0" index="0" speed="10.83" length="17.58" shape="80.94,26.72 84.39,23.93 86.72,20.49 87.92,16.41 87.99,11.67"/>
    </edge>
    <edge id=":J10_14" function="internal">
        <lane id=":J10_14_0" index="0" speed="13.89" length="20.98" shape="80.94,26.72 84.78,24.04 89.32,20.42 93.70,16.60 97.04,13.32"/>
    </edge>
    <edge id=":J10_15" function="internal">
        <lane id=":J10_15_0" index="0" speed="7.38" length="17.80" shape="80.94,26.72 85.95,24.45 89.33,24.76 91.10,27.67 91.24,33.17"/>
    </edge>
    <edge id=":J10_16" function="internal">
        <lane id=":J10_16_0" index="0" speed="5.55" length="9.41" shape="88.06,32.86 87.98,29.95 87.05,28.41 85.26,28.24 82.61,29.44"/>
    </edge>
    <edge id=":J10_17" function="internal">
        <lane id=":J10_17_0" index="0" speed="9.93" length="15.99" shape="88.06,32.86 87.97,28.54 86.79,24.89 84.52,21.90 81.17,19.57"/>
    </edge>
    <edge id=":J10_18" function="internal">
        <lane id=":J10_18_0" index="0" speed="13.89" length="21.20" shape="88.06,32.86 88.32,28.15 88.39,22.26 88.27,16.38 87.99,11.67"/>
    </edge>
    <edge id=":J10_19" function="internal">
        <lane id=":J10_19_0" index="0" speed="13.89" length="3.87" shape="88.06,32.86 88.98,29.10"/>
    </edge>
    <edge id=":J10_22" function="internal">
        <lane id=":J10_22_0" index="0" speed="13.89" length="17.82" shape="88.98,29.10 89.19,28.22 91.46,22.60 94.28,17.23 97.04,13.32"/>
    </edge>
    <edge id=":J11_0" function="internal">
        <lane id=":J11_0_0" index="0" speed="12.60" length="12.86" shape="49.40,3.33 46.30,1.76 43.45,0.61 40.53,0.11 37.21,0.50"/>
    </edge>
    <edge id=":J11_1" function="internal">
        <lane id=":J11_1_0" index="0" speed="7.43" length="16.52" shape="49.40,3.33 45.36,0.52 43.87,-2.46 44.92,-5.64 48.51,-8.99"/>
    </edge>
    <edge id=":J11_2" function="internal">
        <lane id=":J11_2_0" index="0" speed="5.71" length="9.20" shape="50.36,-6.38 48.36,-4.51 47.77,-2.75 48.61,-1.08 50.85,0.48"/>
    </edge>
    <edge id=":J11_3" function="internal">
        <lane id=":J11_3_0" index="0" speed="13.89" length="14.93" shape="50.36,-6.38 47.26,-4.26 44.07,-2.31 40.73,-0.68 37.21,0.50"/>
    </edge>
    <edge id=":J11_4" function="internal">
        <lane id=":J11_4_0" index="0" speed="13.89" length="13.76" shape="36.42,-2.60 39.78,-3.71 42.75,-5.17 45.58,-6.95 48.51,-8.99"/>
    </edge>
    <edge id=":J11_5" function="internal">
        <lane id=":J11_5_0" index="0" speed="13.61" length="3.16" shape="36.42,-2.60 39.57,-2.90"/>
    </edge>
    <edge id=":J11_6" function="internal">
        <lane id=":J11_6_0" index="0" speed="13.61" length="11.90" shape="39.57,-2.90 40.10,-2.95 43.79,-2.37 47.40,-1.13 50.85,0.48"/>
    </edge>
    <edge id=":J12_0" function="internal">
        <lane id=":J12_0_0" index="0" speed="13.89" length="0.60" shape="-18.05,14.44 -18.22,14.49 -18.34,14.53 -18.45,14.59 -18.59,14.69"/>
    </edge>
    <edge id=":J12_1" function="internal">
        <lane id=":J12_1_0" index="0" speed="9.63" length="1.81" shape="-20.45,12.09 -20.02,11.79 -19.70,11.60 -19.35,11.48 -18.83,11.34"/>
    </edge>
    <edge id=":J13_0" function="internal">
        <lane id=":J13_0_0" index="0" speed="5.74" length="9.48" shape="84.57,-23.06 83.92,-25.91 82.67,-27.39 80.82,-27.50 78.37,-26.23"/>
    </edge>
    <edge id=":J13_1" function="internal">
        <lane id=":J13_1_0" index="0" speed="7.39" length="17.17" shape="84.57,-23.06 84.74,-28.27 86.48,-31.15 89.81,-31.71 94.71,-29.95"/>
    </edge>
    <edge id=":J13_2" function="internal">
        <lane id=":J13_2_0" index="0" speed="5.62" length="9.30" shape="93.25,-27.10 90.59,-28.06 88.79,-27.76 87.85,-26.19 87.76,-23.37"/>
    </edge>
    <edge id=":J13_3" function="internal">
        <lane id=":J13_3_0" index="0" speed="10.42" length="15.73" shape="93.25,-27.10 89.35,-28.57 85.57,-28.92 81.91,-28.14 78.37,-26.23"/>
    </edge>
    <edge id=":J13_4" function="internal">
        <lane id=":J13_4_0" index="0" speed="11.48" length="19.23" shape="76.52,-28.85 80.86,-31.19 85.34,-32.15 89.96,-31.74 94.71,-29.95"/>
    </edge>
    <edge id=":J13_5" function="internal">
        <lane id=":J13_5_0" index="0" speed="7.46" length="7.28" shape="76.52,-28.85 80.97,-31.16 83.22,-31.07"/>
    </edge>
    <edge id=":J13_6" function="internal">
        <lane id=":J13_6_0" index="0" speed="7.46" length="9.74" shape="83.22,-31.07 84.33,-31.02 86.59,-28.43 87.76,-23.37"/>
    </edge>
    <edge id=":J14_0" function="internal">
        <lane id=":J14_0_0" index="0" speed="6.09" length="9.36" shape="120.60,-16.63 122.78,-15.08 123.74,-13.31 123.46,-11.33 121.95,-9.12"/>
    </edge>
    <edge id=":J14_1" function="internal">
        <lane id=":J14_1_0" index="0" speed="3.91" length="3.12" shape="119.59,-11.28 120.09,-12.02 120.18,-12.68 119.87,-13.27 119.14,-13.78"/>
    </edge>
    <edge id=":J15_0" function="internal">
        <lane id=":J15_0_0" index="0" speed="13.89" length="19.64" shape="40.56,107.88 36.70,105.62 31.99,103.10 27.19,100.73 23.10,98.94"/>
    </edge>
    <edge id=":J15_1" function="internal">
        <lane id=":J15_1_0" index="0" speed="13.75" length="5.35" shape="40.56,107.88 36.32,104.63"/>
    </edge>
    <edge id=":J15_2" function="internal">
        <lane id=":J15_2_0" index="0" speed="7.38" length="4.55" shape="40.56,107.88 37.04,105.00"/>
    </edge>
    <edge id=":J15_12" function="internal">
        <lane id=":J15_12_0" index="0" speed="13.75" length="14.80" shape="36.32,104.63 33.07,100.86 30.83,96.56 29.58,91.75"/>
    </edge>
    <edge id=":J15_13" function="internal">
        <lane id=":J15_13_0" index="0" speed="7.38" length="13.31" shape="37.04,105.00 36.29,104.38 35.07,101.20 36.92,98.34 41.82,95.80"/>
    </edge>
    <edge id=":J15_3" function="internal">
        <lane id=":J15_3_0" index="0" speed="5.55" length="9.42" shape="42.93,98.80 40.35,100.14 39.37,101.65 40.01,103.33 42.27,105.18"/>
    </edge>
    <edge id=":J15_4" function="internal">
        <lane id=":J15_4_0" index="0" speed="13.89" length="20.08" shape="42.93,98.80 38.51,99.81 33.00,100.21 27.50,99.93 23.10,98.94"/>
    </edge>
    <edge id=":J15_5" function="internal">
        <lane id=":J15_5_0" index="0" speed="8.38" length="18.18" shape="42.93,98.80 37.72,99.98 33.76,99.20 31.04,96.45 29.58,91.75"/>
    </edge>
    <edge id=":J15_6" function="internal">
        <lane id=":J15_6_0" index="0" speed="6.97" length="12.19" shape="32.74,91.28 33.72,94.37 35.56,96.15 38.26,96.63 41.82,95.80"/>
    </edge>
    <edge id=":J15_7" function="internal">
        <lane id=":J15_7_0" index="0" speed="12.80" length="17.39" shape="32.74,91.28 33.82,95.41 35.77,99.10 38.58,102.36 42.27,105.18"/>
    </edge>
    <edge id=":J15_8" function="internal">
        <lane id=":J15_8_0" index="0" speed="7.41" length="16.79" shape="32.74,91.28 32.81,96.32 31.23,99.28 27.99,100.15 23.10,98.94"/>
    </edge>
    <edge id=":J15_9" function="internal">
        <lane id=":J15_9_0" index="0" speed="5.67" length="9.24" shape="24.27,95.96 26.96,96.63 28.74,96.15 29.62,94.52 29.58,91.75"/>
    </edge>
    <edge id=":J15_10" function="internal">
        <lane id=":J15_10_0" index="0" speed="13.89" length="17.82" shape="24.27,95.96 28.32,96.95 33.03,97.22 37.76,96.82 41.82,95.80"/>
    </edge>
    <edge id=":J15_11" function="internal">
        <lane id=":J15_11_0" index="0" speed="13.89" length="20.24" shape="24.27,95.96 28.45,97.80 33.43,100.26 38.33,102.87 42.27,105.18"/>
    </edge>
    <edge id=":J2_0" function="internal">
        <lane id=":J2_0_0" index="0" speed="9.10" length="11.41" shape="-79.12,100.10 -81.64,99.30 -84.27,99.30 -87.01,100.10 -89.86,101.71"/>
    </edge>
    <edge id=":J2_1" function="internal">
        <lane id=":J2_1_0" index="0" speed="13.89" length="16.55" shape="-79.12,100.10 -82.59,98.14 -86.10,95.70 -89.47,93.04 -92.48,90.41"/>
    </edge>
    <edge id=":J2_2" function="internal">
        <lane id=":J2_2_0" index="0" speed="9.50" length="3.93" shape="-79.12,100.10 -82.00,97.96 -82.17,97.66"/>
    </edge>
    <edge id=":J2_12" function="internal">
        <lane id=":J2_12_0" index="0" speed="9.50" length="12.23" shape="-82.17,97.66 -83.77,94.88 -84.43,90.87 -83.99,85.93"/>
    </edge>
    <edge id=":J2_3" function="internal">
        <lane id=":J2_3_0" index="0" speed="8.25" length="11.99" shape="-80.84,86.51 -81.23,90.34 -80.84,93.40 -79.67,95.70 -77.72,97.23"/>
    </edge>
    <edge id=":J2_4" function="internal">
        <lane id=":J2_4_0" index="0" speed="13.89" length="17.98" shape="-80.84,86.51 -82.06,90.56 -84.15,94.89 -86.85,98.83 -89.86,101.71"/>
    </edge>
    <edge id=":J2_5" function="internal">
        <lane id=":J2_5_0" index="0" speed="7.39" length="17.07" shape="-80.84,86.51 -82.43,91.43 -84.90,93.72 -88.25,93.38 -92.48,90.41"/>
    </edge>
    <edge id=":J2_6" function="internal">
        <lane id=":J2_6_0" index="0" speed="5.63" length="9.28" shape="-90.32,88.05 -88.02,89.67 -86.20,89.85 -84.86,88.61 -83.99,85.93"/>
    </edge>
    <edge id=":J2_7" function="internal">
        <lane id=":J2_7_0" index="0" speed="13.89" length="15.64" shape="-90.32,88.05 -87.43,90.60 -84.32,93.08 -81.06,95.34 -77.72,97.23"/>
    </edge>
    <edge id=":J2_8" function="internal">
        <lane id=":J2_8_0" index="0" speed="7.97" length="4.69" shape="-90.32,88.05 -87.27,91.62"/>
    </edge>
    <edge id=":J2_13" function="internal">
        <lane id=":J2_13_0" index="0" speed="7.97" length="11.79" shape="-87.27,91.62 -87.03,91.89 -85.86,95.45 -86.81,98.72 -89.86,101.71"/>
    </edge>
    <edge id=":J2_9" function="internal">
        <lane id=":J2_9_0" index="0" speed="6.47" length="10.45" shape="-91.69,99.08 -89.88,97.26 -89.42,95.21 -90.28,92.92 -92.48,90.41"/>
    </edge>
    <edge id=":J2_10" function="internal">
        <lane id=":J2_10_0" index="0" speed="12.99" length="15.58" shape="-91.69,99.08 -88.88,96.52 -86.64,93.28 -85.00,89.66 -83.99,85.93"/>
    </edge>
    <edge id=":J2_11" function="internal">
        <lane id=":J2_11_0" index="0" speed="10.31" length="14.81" shape="-91.69,99.08 -88.05,97.06 -84.51,96.07 -81.07,96.13 -77.72,97.23"/>
    </edge>
    <edge id=":J3_0" function="internal">
        <lane id=":J3_0_0" index="0" speed="6.19" length="5.88" shape="-43.77,113.93 -45.02,114.85 -46.34,115.29 -47.73,115.27 -49.20,114.77"/>
    </edge>
    <edge id=":J3_1" function="internal">
        <lane id=":J3_1_0" index="0" speed="3.96" length="1.96" shape="-47.79,111.89 -47.30,112.06 -46.84,112.07 -46.40,111.92 -45.98,111.61"/>
    </edge>
    <edge id=":J4_0" function="internal">
        <lane id=":J4_0_0" index="0" speed="6.36" length="10.19" shape="-68.49,59.60 -71.55,58.62 -73.89,58.76 -75.51,60.04 -76.41,62.45"/>
    </edge>
    <edge id=":J4_1" function="internal">
        <lane id=":J4_1_0" index="0" speed="13.89" length="16.36" shape="-68.49,59.60 -72.17,58.10 -76.18,56.79 -80.28,55.80 -84.20,55.27"/>
    </edge>
    <edge id=":J4_2" function="internal">
        <lane id=":J4_2_0" index="0" speed="7.40" length="4.04" shape="-68.49,59.60 -71.92,57.46"/>
    </edge>
    <edge id=":J4_12" function="internal">
        <lane id=":J4_12_0" index="0" speed="7.40" length="12.76" shape="-71.92,57.46 -72.77,56.93 -74.40,53.99 -73.37,50.80 -69.69,47.34"/>
    </edge>
    <edge id=":J4_3" function="internal">
        <lane id=":J4_3_0" index="0" speed="5.67" length="9.24" shape="-67.83,49.95 -69.85,51.85 -70.42,53.60 -69.52,55.22 -67.17,56.69"/>
    </edge>
    <edge id=":J4_4" function="internal">
        <lane id=":J4_4_0" index="0" speed="13.15" length="15.49" shape="-67.83,49.95 -70.76,52.44 -73.31,55.45 -75.26,58.83 -76.41,62.45"/>
    </edge>
    <edge id=":J4_5" function="internal">
        <lane id=":J4_5_0" index="0" speed="13.89" length="17.46" shape="-67.83,49.95 -71.40,52.06 -75.67,53.83 -80.11,55.00 -84.20,55.27"/>
    </edge>
    <edge id=":J4_6" function="internal">
        <lane id=":J4_6_0" index="0" speed="13.89" length="15.32" shape="-83.98,52.08 -80.21,51.90 -76.49,50.93 -72.94,49.36 -69.69,47.34"/>
    </edge>
    <edge id=":J4_7" function="internal">
        <lane id=":J4_7_0" index="0" speed="13.89" length="17.49" shape="-83.98,52.08 -79.89,52.66 -75.41,53.74 -71.02,55.14 -67.17,56.69"/>
    </edge>
    <edge id=":J4_8" function="internal">
        <lane id=":J4_8_0" index="0" speed="7.91" length="4.64" shape="-83.98,52.08 -80.00,52.97 -79.55,53.32"/>
    </edge>
    <edge id=":J4_13" function="internal">
        <lane id=":J4_13_0" index="0" speed="7.91" length="10.40" shape="-79.55,53.32 -77.41,55.00 -76.21,58.16 -76.41,62.45"/>
    </edge>
    <edge id=":J4_9" function="internal">
        <lane id=":J4_9_0" index="0" speed="6.40" length="9.45" shape="-79.56,61.87 -79.42,59.13 -80.15,57.12 -81.74,55.84 -84.20,55.27"/>
    </edge>
    <edge id=":J4_10" function="internal">
        <lane id=":J4_10_0" index="0" speed="13.89" length="17.86" shape="-79.56,61.87 -78.21,57.94 -75.81,53.86 -72.82,50.15 -69.69,47.34"/>
    </edge>
    <edge id=":J4_11" function="internal">
        <lane id=":J4_11_0" index="0" speed="7.89" length="16.32" shape="-79.56,61.87 -78.10,57.81 -75.54,55.59 -71.90,55.21 -67.17,56.69"/>
    </edge>
    <edge id=":J5_0" function="internal">
        <lane id=":J5_0_0" index="0" speed="6.71" length="16.29" shape="-128.29,57.60 -131.87,53.60 -132.46,50.88 -130.08,49.44 -124.72,49.27"/>
    </edge>
    <edge id=":J5_1" function="internal">
        <lane id=":J5_1_0" index="0" speed="4.23" length="5.43" shape="-124.94,52.47 -126.73,52.52 -127.52,53.00 -127.32,53.91 -126.13,55.24"/>
    </edge>
    <edge id=":J6_0" function="internal">
        <lane id=":J6_0_0" index="0" speed="10.20" length="15.85" shape="-3.81,88.34 -8.23,87.07 -12.18,86.93 -15.67,87.91 -18.69,90.01"/>
    </edge>
    <edge id=":J6_1" function="internal">
        <lane id=":J6_1_0" index="0" speed="13.89" length="19.82" shape="-3.81,88.34 -22.09,80.66"/>
    </edge>
    <edge id=":J6_2" function="internal">
        <lane id=":J6_2_0" index="0" speed="7.39" length="5.80" shape="-3.81,88.34 -8.92,85.60"/>
    </edge>
    <edge id=":J6_12" function="internal">
        <lane id=":J6_12_0" index="0" speed="7.39" length="12.67" shape="-8.92,85.60 -10.73,82.67 -9.24,79.58 -4.46,76.30"/>
    </edge>
    <edge id=":J6_3" function="internal">
        <lane id=":J6_3_0" index="0" speed="5.51" length="9.55" shape="-2.97,79.14 -5.45,80.83 -6.22,82.43 -5.28,83.94 -2.64,85.36"/>
    </edge>
    <edge id=":J6_4" function="internal">
        <lane id=":J6_4_0" index="0" speed="13.89" length="19.15" shape="-2.97,79.14 -6.79,81.33 -11.14,84.15 -15.33,87.18 -18.69,90.01"/>
    </edge>
    <edge id=":J6_5" function="internal">
        <lane id=":J6_5_0" index="0" speed="13.09" length="19.59" shape="-2.97,79.14 -7.55,80.81 -12.86,81.66 -18.01,81.64 -22.09,80.66"/>
    </edge>
    <edge id=":J6_6" function="internal">
        <lane id=":J6_6_0" index="0" speed="12.19" length="16.95" shape="-20.77,77.75 -17.03,78.89 -13.07,79.03 -8.87,78.17 -4.46,76.30"/>
    </edge>
    <edge id=":J6_7" function="internal">
        <lane id=":J6_7_0" index="0" speed="13.89" length="19.66" shape="-20.77,77.75 -2.64,85.36"/>
    </edge>
    <edge id=":J6_8" function="internal">
        <lane id=":J6_8_0" index="0" speed="7.49" length="4.27" shape="-20.77,77.75 -17.16,80.04"/>
    </edge>
    <edge id=":J6_13" function="internal">
        <lane id=":J6_13_0" index="0" speed="7.49" length="11.65" shape="-17.16,80.04 -16.84,80.24 -15.19,83.11 -15.81,86.37 -18.69,90.01"/>
    </edge>
    <edge id=":J6_9" function="internal">
        <lane id=":J6_9_0" index="0" speed="5.84" length="9.13" shape="-20.90,87.69 -19.24,85.61 -18.89,83.74 -19.84,82.09 -22.09,80.66"/>
    </edge>
    <edge id=":J6_10" function="internal">
        <lane id=":J6_10_0" index="0" speed="13.89" length="20.04" shape="-20.90,87.69 -17.43,84.78 -12.98,81.57 -8.39,78.57 -4.46,76.30"/>
    </edge>
    <edge id=":J6_11" function="internal">
        <lane id=":J6_11_0" index="0" speed="11.15" length="19.08" shape="-20.90,87.69 -17.34,85.60 -12.54,84.44 -7.36,84.32 -2.64,85.36"/>
    </edge>
    <edge id=":J7_0" function="internal">
        <lane id=":J7_0_0" index="0" speed="6.25" length="5.39" shape="86.68,79.72 86.37,81.10 85.75,82.23 84.82,83.11 83.57,83.76"/>
    </edge>
    <edge id=":J7_1" function="internal">
        <lane id=":J7_1_0" index="0" speed="3.99" length="1.80" shape="82.46,80.75 82.87,80.54 83.19,80.25 83.39,79.87 83.49,79.41"/>
    </edge>
    <edge id=":J8_0" function="internal">
        <lane id=":J8_0_0" index="0" speed="5.90" length="9.10" shape="26.44,70.43 25.69,67.90 24.37,66.51 22.47,66.26 19.98,67.14"/>
    </edge>
    <edge id=":J8_1" function="internal">
        <lane id=":J8_1_0" index="0" speed="9.74" length="14.90" shape="26.44,70.43 26.21,66.05 26.92,62.40 28.57,59.45 31.16,57.22"/>
    </edge>
    <edge id=":J8_2" function="internal">
        <lane id=":J8_2_0" index="0" speed="8.49" length="11.15" shape="32.83,59.95 31.01,61.57 29.87,63.77 29.40,66.57 29.60,69.96"/>
    </edge>
    <edge id=":J8_3" function="internal">
        <lane id=":J8_3_0" index="0" speed="13.89" length="14.72" shape="32.83,59.95 19.98,67.14"/>
    </edge>
    <edge id=":J8_4" function="internal">
        <lane id=":J8_4_0" index="0" speed="13.89" length="14.50" shape="18.50,64.30 31.16,57.22"/>
    </edge>
    <edge id=":J8_5" function="internal">
        <lane id=":J8_5_0" index="0" speed="7.54" length="4.23" shape="18.50,64.30 22.49,62.89"/>
    </edge>
    <edge id=":J8_6" function="internal">
        <lane id=":J8_6_0" index="0" speed="7.54" length="11.44" shape="22.49,62.89 22.77,62.79 26.04,63.22 28.32,65.62 29.60,69.96"/>
    </edge>
    <edge id=":J9_0" function="internal">
        <lane id=":J9_0_0" index="0" speed="3.65" length="4.67" shape="97.57,140.06 98.16,141.37 98.07,142.26 97.31,142.73 95.87,142.76"/>
    </edge>

    <edge id="-E20" from="J2" to="J1" priority="-1" length="8.00">
        <lane id="-E20_0" index="0" speed="13.89" length="8.00" shape="-89.86,101.71 -120.66,123.04"/>
    </edge>
    <edge id="-E21" from="J3" to="J2" priority="-1" length="2.00">
        <lane id="-E21_0" index="0" speed="13.89" length="2.00" shape="-49.20,114.77 -79.12,100.10"/>
    </edge>
    <edge id="-E22" from="J6" to="J3" priority="-1" length="3.00">
        <lane id="-E22_0" index="0" speed="13.89" length="3.00" shape="-18.69,90.01 -43.77,113.93"/>
    </edge>
    <edge id="-E23" from="J4" to="J2" priority="-1" length="3.00">
        <lane id="-E23_0" index="0" speed="13.89" length="3.00" shape="-76.41,62.45 -80.84,86.51"/>
    </edge>
    <edge id="-E24" from="J6" to="J4" priority="-1" length="4.00">
        <lane id="-E24_0" index="0" speed="13.89" length="4.00" shape="-22.09,80.66 -68.49,59.60"/>
    </edge>
    <edge id="-E25" from="J5" to="J2" priority="-1" length="6.00">
        <lane id="-E25_0" index="0" speed="13.89" length="6.00" shape="-126.13,55.24 -90.32,88.05"/>
    </edge>
    <edge id="-E26" from="J4" to="J5" priority="-1" length="4.00">
        <lane id="-E26_0" index="0" speed="13.89" length="4.00" shape="-84.20,55.27 -124.94,52.47"/>
    </edge>
    <edge id="-E27" from="J15" to="J6" priority="-1" length="3.00">
        <lane id="-E27_0" index="0" speed="13.89" length="3.00" shape="23.10,98.94 -3.81,88.34"/>
    </edge>
    <edge id="-E28" from="J8" to="J15" priority="-1" length="2.00">
        <lane id="-E28_0" index="0" speed="13.89" length="2.00" shape="29.60,69.96 32.74,91.28"/>
    </edge>
    <edge id="-E29" from="J8" to="J6" priority="-1" length="2.00">
        <lane id="-E29_0" index="0" speed="13.89" length="2.00" shape="19.98,67.14 -2.97,79.14"/>
    </edge>
    <edge id="-E30" from="J7" to="J15" priority="-1" length="2.00">
        <lane id="-E30_0" index="0" speed="13.89" length="2.00" shape="83.57,83.76 42.93,98.80"/>
    </edge>
    <edge id="-E31" from="J10" to="J7" priority="-1" length="7.00">
        <lane id="-E31_0" index="0" speed="13.89" length="7.00" shape="91.24,33.17 86.68,79.72"/>
    </edge>
    <edge id="-E32" from="J8" to="J10" priority="-1" length="800.00">
        <lane id="-E32_0" index="0" speed="13.89" length="800.00" shape="31.16,57.22 80.94,26.72"/>
    </edge>
    <edge id="-E33" from="J12" to="J4" priority="-1" length="10.00">
        <lane id="-E33_0" index="0" speed="13.89" length="10.00" shape="-18.59,14.69 -67.83,49.95"/>
    </edge>
    <edge id="-E34" from="J11" to="J12" priority="-1" length="10.00">
        <lane id="-E34_0" index="0" speed="13.89" length="10.00" shape="37.21,0.50 -18.05,14.44"/>
    </edge>
    <edge id="-E35" from="J10" to="J11" priority="-1" length="5.00">
        <lane id="-E35_0" index="0" speed="13.89" length="5.00" shape="81.17,19.57 49.40,3.33"/>
    </edge>
    <edge id="-E36" from="J13" to="J11" priority="-1" length="5.00">
        <lane id="-E36_0" index="0" speed="13.89" length="5.00" shape="78.37,-26.23 50.36,-6.38"/>
    </edge>
    <edge id="-E37" from="J10" to="J13" priority="-1" length="10.00">
        <lane id="-E37_0" index="0" speed="13.89" length="10.00" shape="87.99,11.67 84.57,-23.06"/>
    </edge>
    <edge id="-E38" from="J14" to="J13" priority="-1" length="2.00">
        <lane id="-E38_0" index="0" speed="13.89" length="2.00" shape="119.14,-13.78 93.25,-27.10"/>
    </edge>
    <edge id="-E39" from="J10" to="J14" priority="-1" length="8.00">
        <lane id="-E39_0" index="0" speed="13.89" length="8.00" shape="97.04,13.32 119.59,-11.28"/>
    </edge>
    <edge id="-E40" from="J9" to="J15" priority="-1" length="8.00">
        <lane id="-E40_0" index="0" speed="13.89" length="8.00" shape="95.87,142.76 40.56,107.88"/>
    </edge>
    <edge id="E20" from="J1" to="J2" priority="-1" length="800.00">
        <lane id="E20_0" index="0" speed="13.89" length="800.00" shape="-122.48,120.40 -91.69,99.08"/>
    </edge>
    <edge id="E21" from="J2" to="J3" priority="-1" length="300.00">
        <lane id="E21_0" index="0" speed="13.89" length="300.00" shape="-77.72,97.23 -47.79,111.89"/>
    </edge>
    <edge id="E22" from="J3" to="J6" priority="-1" length="300.00">
        <lane id="E22_0" index="0" speed="13.89" length="300.00" shape="-45.98,111.61 -20.90,87.69"/>
    </edge>
    <edge id="E23" from="J2" to="J4" priority="-1" length="3.00">
        <lane id="E23_0" index="0" speed="13.89" length="3.00" shape="-83.99,85.93 -79.56,61.87"/>
    </edge>
    <edge id="E24" from="J4" to="J6" priority="-1" length="4.00">
        <lane id="E24_0" index="0" speed="13.89" length="4.00" shape="-67.17,56.69 -20.77,77.75"/>
    </edge>
    <edge id="E25" from="J2" to="J5" priority="-1" length="6.00">
        <lane id="E25_0" index="0" speed="13.89" length="6.00" shape="-92.48,90.41 -128.29,57.60"/>
    </edge>
    <edge id="E26" from="J5" to="J4" priority="-1" length="4.00">
        <lane id="E26_0" index="0" speed="13.89" length="4.00" shape="-124.72,49.27 -83.98,52.08"/>
    </edge>
    <edge id="E27" from="J6" to="J15" priority="-1" length="3.00">
        <lane id="E27_0" index="0" speed="13.89" length="3.00" shape="-2.64,85.36 24.27,95.96"/>
    </edge>
    <edge id="E28" from="J15" to="J8" priority="-1" length="2.00">
        <lane id="E28_0" index="0" speed="13.89" length="2.00" shape="29.58,91.75 26.44,70.43"/>
    </edge>
    <edge id="E29" from="J6" to="J8" priority="-1" length="200.00">
        <lane id="E29_0" index="0" speed="13.89" length="200.00" shape="-4.46,76.30 18.50,64.30"/>
    </edge>
    <edge id="E30" from="J15" to="J7" priority="-1" length="2.00">
        <lane id="E30_0" index="0" speed="13.89" length="2.00" shape="41.82,95.80 82.46,80.75"/>
    </edge>
    <edge id="E31" from="J7" to="J10" priority="-1" length="7.00">
        <lane id="E31_0" index="0" speed="13.89" length="7.00" shape="83.49,79.41 88.06,32.86"/>
    </edge>
    <edge id="E32" from="J10" to="J8" priority="-1" length="8.00">
        <lane id="E32_0" index="0" speed="13.89" length="8.00" shape="82.61,29.44 32.83,59.95"/>
    </edge>
    <edge id="E33" from="J4" to="J12" priority="-1" length="10.00">
        <lane id="E33_0" index="0" speed="13.89" length="10.00" shape="-69.69,47.34 -20.45,12.09"/>
    </edge>
    <edge id="E34" from="J12" to="J11" priority="-1" length="10.00">
        <lane id="E34_0" index="0" speed="13.89" length="10.00" shape="-18.83,11.34 36.42,-2.60"/>
    </edge>
    <edge id="E35" from="J11" to="J10" priority="-1" length="5.00">
        <lane id="E35_0" index="0" speed="13.89" length="5.00" shape="50.85,0.48 82.62,16.72"/>
    </edge>
    <edge id="E36" from="J11" to="J13" priority="-1" length="5.00">
        <lane id="E36_0" index="0" speed="13.89" length="5.00" shape="48.51,-8.99 76.52,-28.85"/>
    </edge>
    <edge id="E37" from="J13" to="J10" priority="-1" length="10.00">