<?xml version="1.0" encoding="UTF-8"?>

<!-- generated on 2023-01-14 12:05:50 by Eclipse SUMO netedit Version 1.14.1
<configuration xmlns:xsi="http://www.w3.org/2001/XMLSchema-instance" xsi:noNamespaceSchemaLocation="http://sumo.dlr.de/xsd/netconvertConfiguration.xsd">

    <input>
        <sumo-net-file value="C:\Users\RenatoPC\Desktop\Drive\7moCiclo\Multiagentes\Trabajo%20Final%20Multiagentes\Codigo%20Github\sistemaMultiagenteDeRepartidores\Red.net.xml"/>
    </input>

    <output>
        <output-file value="C:\Users\RenatoPC\Desktop\Drive\7moCiclo\Multiagentes\Trabajo%20Final%20Multiagentes\Codigo%20Github\sistemaMultiagenteDeRepartidores\Red.net.xml"/>
    </output>

    <processing>
        <geometry.min-radius.fix.railways value="false"/>
        <geometry.max-grade.fix value="false"/>
        <offset.disable-normalization value="true"/>
        <lefthand value="false"/>
    </processing>

    <junctions>
        <no-turnarounds value="true"/>
        <junctions.corner-detail value="5"/>
        <junctions.limit-turn-speed value="5.5"/>
        <rectangular-lane-cut value="false"/>
    </junctions>

    <pedestrian>
        <walkingareas value="false"/>
    </pedestrian>

</configuration>
-->

<net version="1.9" junctionCornerDetail="5" limitTurnSpeed="5.50" xmlns:xsi="http://www.w3.org/2001/XMLSchema-instance" xsi:noNamespaceSchemaLocation="http://sumo.dlr.de/xsd/net_file.xsd">

    <location netOffset="0.00,0.00" convBoundary="-146.30,-77.10,154.49,151.74" origBoundary="-10000000000.00,-10000000000.00,10000000000.00,10000000000.00" projParameter="!"/>

    <edge id=":J1_0" function="internal">
        <lane id=":J1_0_0" index="0" speed="3.65" length="4.67" shape="-145.27,149.72 -146.70,149.89 -147.52,149.53 -147.73,148.67 -147.33,147.28"/>
    </edge>
    <edge id=":J10_0" function="internal">
        <lane id=":J10_0_0" index="0" speed="6.10" length="9.53" shape="104.30,9.53 103.35,7.11 101.83,5.85 99.74,5.74 97.08,6.80"/>
    </edge>
    <edge id=":J10_1" function="internal">
        <lane id=":J10_1_0" index="0" speed="13.89" length="15.40" shape="104.30,9.53 103.10,5.93 101.22,2.53 98.80,-0.53 95.98,-3.09"/>
    </edge>
    <edge id=":J10_2" function="internal">
        <lane id=":J10_2_0" index="0" speed="13.89" length="18.59" shape="104.30,9.53 103.76,5.27 103.70,0.28 104.05,-4.70 104.74,-8.96"/>
    </edge>
    <edge id=":J10_3" function="internal">
        <lane id=":J10_3_0" index="0" speed="9.17" length="16.91" shape="104.30,9.53 104.49,5.70 106.31,1.74 109.26,-1.68 112.83,-3.89"/>
    </edge>
    <edge id=":J10_4" function="internal">
        <lane id=":J10_4_0" index="0" speed="8.09" length="12.96" shape="113.95,-0.89 110.54,0.84 108.31,3.04 107.27,5.71 107.42,8.85"/>
    </edge>
    <edge id=":J10_5" function="internal">
        <lane id=":J10_5_0" index="0" speed="13.89" length="18.56" shape="113.95,-0.89 109.96,0.71 105.40,2.70 100.90,4.82 97.08,6.80"/>
    </edge>
    <edge id=":J10_6" function="internal">
        <lane id=":J10_6_0" index="0" speed="11.98" length="5.09" shape="113.95,-0.89 109.03,0.39"/>
    </edge>
    <edge id=":J10_7" function="internal">
        <lane id=":J10_7_0" index="0" speed="7.39" length="4.64" shape="113.95,-0.89 109.44,0.16"/>
    </edge>
    <edge id=":J10_20" function="internal">
        <lane id=":J10_20_0" index="0" speed="11.98" length="13.85" shape="109.03,0.39 104.39,0.45 100.04,-0.71 95.98,-3.09"/>
    </edge>
    <edge id=":J10_21" function="internal">
        <lane id=":J10_21_0" index="0" speed="7.39" length="12.61" shape="109.44,0.16 108.84,0.30 105.60,-0.65 104.24,-3.73 104.74,-8.96"/>
    </edge>
    <edge id=":J10_8" function="internal">
        <lane id=":J10_8_0" index="0" speed="5.61" length="9.31" shape="107.86,-8.25 107.59,-5.42 108.32,-3.76 110.07,-3.25 112.83,-3.89"/>
    </edge>
    <edge id=":J10_9" function="internal">
        <lane id=":J10_9_0" index="0" speed="13.89" length="17.20" shape="107.86,-8.25 107.17,-4.21 106.82,0.30 106.88,4.80 107.42,8.85"/>
    </edge>
    <edge id=":J10_10" function="internal">
        <lane id=":J10_10_0" index="0" speed="13.63" length="19.07" shape="107.86,-8.25 106.29,-3.41 103.97,0.71 100.90,4.11 97.08,6.80"/>
    </edge>
    <edge id=":J10_11" function="internal">
        <lane id=":J10_11_0" index="0" speed="7.60" length="16.87" shape="107.86,-8.25 106.08,-3.38 103.50,-0.90 100.14,-0.80 95.98,-3.09"/>
    </edge>
    <edge id=":J10_12" function="internal">
        <lane id=":J10_12_0" index="0" speed="5.97" length="9.86" shape="97.92,-5.64 100.28,-4.36 102.20,-4.50 103.69,-6.03 104.74,-8.96"/>
    </edge>
    <edge id=":J10_13" function="internal">
        <lane id=":J10_13_0" index="0" speed="10.94" length="15.70" shape="97.92,-5.64 101.26,-3.68 104.86,-2.74 108.72,-2.81 112.83,-3.89"/>
    </edge>
    <edge id=":J10_14" function="internal">
        <lane id=":J10_14_0" index="0" speed="13.89" length="17.57" shape="97.92,-5.64 100.93,-2.78 103.76,0.91 106.04,4.95 107.42,8.85"/>
    </edge>
    <edge id=":J10_15" function="internal">
        <lane id=":J10_15_0" index="0" speed="7.48" length="16.15" shape="97.92,-5.64 101.27,-2.26 102.25,0.94 100.85,3.96 97.08,6.80"/>
    </edge>
    <edge id=":J10_16" function="internal">
        <lane id=":J10_16_0" index="0" speed="5.82" length="9.21" shape="95.53,4.00 97.67,2.38 98.46,0.66 97.90,-1.16 95.98,-3.09"/>
    </edge>
    <edge id=":J10_17" function="internal">
        <lane id=":J10_17_0" index="0" speed="12.66" length="16.38" shape="95.53,4.00 98.78,1.70 101.41,-1.22 103.39,-4.78 104.74,-8.96"/>
    </edge>
    <edge id=":J10_18" function="internal">
        <lane id=":J10_18_0" index="0" speed="13.89" length="19.03" shape="95.53,4.00 99.42,1.99 104.06,-0.20 108.77,-2.26 112.83,-3.89"/>
    </edge>
    <edge id=":J10_19" function="internal">
        <lane id=":J10_19_0" index="0" speed="7.68" length="4.95" shape="95.53,4.00 99.89,2.29 100.16,2.31"/>
    </edge>
    <edge id=":J10_22" function="internal">
        <lane id=":J10_22_0" index="0" speed="7.68" length="10.92" shape="100.16,2.31 103.33,2.54 105.84,4.72 107.42,8.85"/>
    </edge>
    <edge id=":J11_0" function="internal">
        <lane id=":J11_0_0" index="0" speed="8.67" length="11.00" shape="66.93,-25.32 64.14,-27.10 61.51,-28.06 59.03,-28.18 56.72,-27.48"/>
    </edge>
    <edge id=":J11_1" function="internal">
        <lane id=":J11_1_0" index="0" speed="7.60" length="15.35" shape="66.93,-25.32 63.85,-28.46 62.84,-31.58 63.88,-34.70 66.98,-37.81"/>
    </edge>
    <edge id=":J11_2" function="internal">
        <lane id=":J11_2_0" index="0" speed="6.00" length="9.08" shape="68.91,-35.25 67.07,-33.41 66.45,-31.57 67.05,-29.72 68.87,-27.86"/>
    </edge>
    <edge id=":J11_3" function="internal">
        <lane id=":J11_3_0" index="0" speed="13.89" length="14.47" shape="68.91,-35.25 65.94,-33.08 62.99,-31.07 59.95,-29.21 56.72,-27.48"/>
    </edge>
    <edge id=":J11_4" function="internal">
        <lane id=":J11_4_0" index="0" speed="13.89" length="13.90" shape="55.29,-30.34 58.44,-32.03 61.31,-33.78 64.10,-35.69 66.98,-37.81"/>
    </edge>
    <edge id=":J11_5" function="internal">
        <lane id=":J11_5_0" index="0" speed="9.91" length="3.46" shape="55.29,-30.34 58.49,-31.36 58.59,-31.35"/>
    </edge>
    <edge id=":J11_6" function="internal">
        <lane id=":J11_6_0" index="0" speed="9.91" length="11.12" shape="58.59,-31.35 61.81,-31.28 65.28,-30.12 68.87,-27.86"/>
    </edge>
    <edge id=":J12_0" function="internal">
        <lane id=":J12_0_0" index="0" speed="13.89" length="0.10" shape="-4.54,3.16 -4.46,3.12"/>
    </edge>
    <edge id=":J12_1" function="internal">
        <lane id=":J12_1_0" index="0" speed="13.89" length="0.10" shape="-6.06,0.34 -5.98,0.30"/>
    </edge>
    <edge id=":J13_0" function="internal">
        <lane id=":J13_0_0" index="0" speed="5.50" length="10.14" shape="126.55,-65.44 124.71,-68.07 123.12,-68.76 121.78,-67.51 120.70,-64.32"/>
    </edge>
    <edge id=":J13_1" function="internal">
        <lane id=":J13_1_0" index="0" speed="8.21" length="16.62" shape="126.55,-65.44 123.79,-69.09 120.57,-70.76 116.89,-70.45 112.76,-68.17"/>
    </edge>
    <edge id=":J13_2" function="internal">
        <lane id=":J13_2_0" index="0" speed="9.43" length="22.33" shape="110.84,-70.73 116.37,-73.78 121.30,-74.17 125.63,-71.90 129.36,-66.97"/>
    </edge>
    <edge id=":J13_3" function="internal">
        <lane id=":J13_3_0" index="0" speed="7.50" length="10.27" shape="110.84,-70.73 116.59,-74.18 120.15,-74.26"/>
    </edge>
    <edge id=":J13_6" function="internal">
        <lane id=":J13_6_0" index="0" speed="7.50" length="10.27" shape="120.15,-74.26 121.52,-70.98 120.70,-64.32"/>
    </edge>
    <edge id=":J13_4" function="internal">
        <lane id=":J13_4_0" index="0" speed="5.46" length="10.05" shape="117.58,-65.03 117.98,-68.29 117.31,-69.90 115.57,-69.86 112.76,-68.17"/>
    </edge>
    <edge id=":J13_5" function="internal">
        <lane id=":J13_5_0" index="0" speed="7.51" length="20.34" shape="117.58,-65.03 119.74,-71.35 122.42,-73.78 125.63,-72.32 129.36,-66.97"/>
    </edge>
    <edge id=":J14_0" function="internal">
        <lane id=":J14_0_0" index="0" speed="6.07" length="8.58" shape="154.12,-21.77 154.96,-19.52 154.82,-17.64 153.69,-16.12 151.59,-14.97"/>
    </edge>
    <edge id=":J14_1" function="internal">
        <lane id=":J14_1_0" index="0" speed="3.90" length="2.86" shape="150.47,-17.96 151.17,-18.35 151.54,-18.85 151.59,-19.48 151.31,-20.23"/>
    </edge>
    <edge id=":J15_0" function="internal">
        <lane id=":J15_0_0" index="0" speed="13.89" length="18.35" shape="73.36,103.27 69.76,100.97 65.48,98.59 61.08,96.43 57.13,94.79"/>
    </edge>
    <edge id=":J15_1" function="internal">
        <lane id=":J15_1_0" index="0" speed="13.89" length="4.90" shape="73.36,103.27 69.64,100.09"/>
    </edge>
    <edge id=":J15_2" function="internal">
        <lane id=":J15_2_0" index="0" speed="7.41" length="3.95" shape="73.36,103.27 70.47,100.59"/>
    </edge>
    <edge id=":J15_12" function="internal">
        <lane id=":J15_12_0" index="0" speed="13.89" length="14.27" shape="69.64,100.09 66.75,96.39 64.70,92.18 63.48,87.44"/>
    </edge>
    <edge id=":J15_13" function="internal">
        <lane id=":J15_13_0" index="0" speed="7.41" length="12.77" shape="70.47,100.59 69.69,99.87 68.64,96.69 70.21,93.73 74.40,90.99"/>
    </edge>
    <edge id=":J15_3" function="internal">
        <lane id=":J15_3_0" index="0" speed="5.68" length="9.23" shape="75.78,93.87 73.46,95.39 72.60,97.02 73.18,98.78 75.21,100.65"/>
    </edge>
    <edge id=":J15_4" function="internal">
        <lane id=":J15_4_0" index="0" speed="13.89" length="19.17" shape="75.78,93.87 71.18,95.57 66.54,96.29 61.86,96.03 57.13,94.79"/>
    </edge>
    <edge id=":J15_5" function="internal">
        <lane id=":J15_5_0" index="0" speed="7.97" length="17.15" shape="75.78,93.87 71.08,95.35 67.47,94.77 64.93,92.13 63.48,87.44"/>
    </edge>
    <edge id=":J15_6" function="internal">
        <lane id=":J15_6_0" index="0" speed="6.45" length="10.81" shape="66.64,86.94 67.56,89.89 69.16,91.55 71.44,91.92 74.40,90.99"/>
    </edge>
    <edge id=":J15_7" function="internal">
        <lane id=":J15_7_0" index="0" speed="13.22" length="16.61" shape="66.64,86.94 67.69,91.04 69.47,94.69 71.98,97.90 75.21,100.65"/>
    </edge>
    <edge id=":J15_8" function="internal">
        <lane id=":J15_8_0" index="0" speed="7.41" length="16.69" shape="66.64,86.94 66.77,91.93 65.22,94.90 62.01,95.86 57.13,94.79"/>
    </edge>
    <edge id=":J15_9" function="internal">
        <lane id=":J15_9_0" index="0" speed="5.69" length="9.22" shape="58.23,91.78 60.92,92.37 62.70,91.85 63.55,90.20 63.48,87.44"/>
    </edge>
    <edge id=":J15_10" function="internal">
        <lane id=":J15_10_0" index="0" speed="13.27" length="16.63" shape="58.23,91.78 62.33,92.86 66.39,93.08 70.41,92.46 74.40,90.99"/>
    </edge>
    <edge id=":J15_11" function="internal">
        <lane id=":J15_11_0" index="0" speed="13.89" length="19.19" shape="58.23,91.78 62.29,93.48 66.95,95.78 71.49,98.29 75.21,100.65"/>
    </edge>
    <edge id=":J2_0" function="internal">
        <lane id=":J2_0_0" index="0" speed="8.52" length="10.84" shape="-78.76,100.12 -81.33,99.33 -83.86,99.36 -86.36,100.20 -88.83,101.87"/>
    </edge>
    <edge id=":J2_1" function="internal">
        <lane id=":J2_1_0" index="0" speed="13.89" length="16.64" shape="-78.76,100.12 -82.25,98.18 -85.76,95.69 -89.09,92.92 -91.99,90.15"/>
    </edge>
    <edge id=":J2_2" function="internal">
        <lane id=":J2_2_0" index="0" speed="8.99" length="4.09" shape="-78.76,100.12 -81.78,97.98 -81.97,97.65"/>
    </edge>
    <edge id=":J2_12" function="internal">
        <lane id=":J2_12_0" index="0" speed="8.99" length="11.92" shape="-81.97,97.65 -83.52,94.95 -83.97,91.04 -83.14,86.24"/>
    </edge>
    <edge id=":J2_3" function="internal">
        <lane id=":J2_3_0" index="0" speed="7.69" length="11.44" shape="-80.06,87.11 -80.72,90.69 -80.51,93.56 -79.40,95.74 -77.41,97.22"/>
    </edge>
    <edge id=":J2_4" function="internal">
        <lane id=":J2_4_0" index="0" speed="13.89" length="17.35" shape="-80.06,87.11 -81.47,90.99 -83.52,95.08 -86.04,98.88 -88.83,101.87"/>
    </edge>
    <edge id=":J2_5" function="internal">
        <lane id=":J2_5_0" index="0" speed="7.41" length="16.78" shape="-80.06,87.11 -82.06,91.74 -84.71,93.78 -88.03,93.26 -91.99,90.15"/>
    </edge>
    <edge id=":J2_6" function="internal">
        <lane id=":J2_6_0" index="0" speed="5.67" length="9.24" shape="-89.71,87.92 -87.52,89.62 -85.70,89.91 -84.24,88.79 -83.14,86.24"/>
    </edge>
    <edge id=":J2_7" function="internal">
        <lane id=":J2_7_0" index="0" speed="13.89" length="15.49" shape="-89.71,87.92 -86.95,90.58 -83.95,93.12 -80.75,95.38 -77.41,97.22"/>
    </edge>
    <edge id=":J2_8" function="internal">
        <lane id=":J2_8_0" index="0" speed="8.29" length="4.49" shape="-89.71,87.92 -86.96,91.47"/>
    </edge>
    <edge id=":J2_13" function="internal">
        <lane id=":J2_13_0" index="0" speed="8.29" length="11.66" shape="-86.96,91.47 -86.70,91.80 -85.56,95.42 -86.26,98.78 -88.83,101.87"/>
    </edge>
    <edge id=":J2_9" function="internal">
        <lane id=":J2_9_0" index="0" speed="6.87" length="10.74" shape="-90.90,99.43 -89.33,97.46 -88.99,95.26 -89.88,92.82 -91.99,90.15"/>
    </edge>
    <edge id=":J2_10" function="internal">
        <lane id=":J2_10_0" index="0" speed="13.89" length="15.50" shape="-90.90,99.43 -88.27,96.68 -86.10,93.43 -84.39,89.88 -83.14,86.24"/>
    </edge>
    <edge id=":J2_11" function="internal">
        <lane id=":J2_11_0" index="0" speed="9.77" length="14.49" shape="-90.90,99.43 -87.63,97.24 -84.30,96.14 -80.89,96.13 -77.41,97.22"/>
    </edge>
    <edge id=":J3_0" function="internal">
        <lane id=":J3_0_0" index="0" speed="6.10" length="7.07" shape="-30.85,117.68 -32.07,119.14 -33.49,119.93 -35.11,120.05 -36.94,119.49"/>
    </edge>
    <edge id=":J3_1" function="internal">
        <lane id=":J3_1_0" index="0" speed="3.92" length="2.36" shape="-35.59,116.59 -34.98,116.78 -34.44,116.74 -33.97,116.47 -33.56,115.98"/>
    </edge>
    <edge id=":J4_0" function="internal">
        <lane id=":J4_0_0" index="0" speed="6.60" length="10.78" shape="-59.69,43.46 -62.85,42.24 -65.35,42.24 -67.19,43.44 -68.38,45.86"/>
    </edge>
    <edge id=":J4_1" function="internal">
        <lane id=":J4_1_0" index="0" speed="13.89" length="16.92" shape="-59.69,43.46 -63.40,41.80 -67.59,40.42 -71.90,39.47 -75.92,39.13"/>
    </edge>
    <edge id=":J4_2" function="internal">
        <lane id=":J4_2_0" index="0" speed="7.39" length="3.56" shape="-59.69,43.46 -62.61,41.42"/>
    </edge>
    <edge id=":J4_12" function="internal">
        <lane id=":J4_12_0" index="0" speed="7.39" length="13.57" shape="-62.61,41.42 -63.95,40.48 -65.40,37.44 -64.06,34.35 -59.93,31.20"/>
    </edge>
    <edge id=":J4_3" function="internal">
        <lane id=":J4_3_0" index="0" speed="5.62" length="9.29" shape="-58.34,33.98 -60.58,35.68 -61.31,37.36 -60.52,39.01 -58.21,40.63"/>
    </edge>
    <edge id=":J4_4" function="internal">
        <lane id=":J4_4_0" index="0" speed="13.22" length="15.89" shape="-58.34,33.98 -61.54,36.21 -64.47,39.05 -66.85,42.33 -68.38,45.86"/>
    </edge>
    <edge id=":J4_5" function="internal">
        <lane id=":J4_5_0" index="0" speed="13.89" length="18.45" shape="-58.34,33.98 -62.21,35.83 -66.88,37.47 -71.67,38.66 -75.92,39.13"/>
    </edge>
    <edge id=":J4_6" function="internal">
        <lane id=":J4_6_0" index="0" speed="13.89" length="16.84" shape="-75.94,35.93 -71.94,35.53 -67.69,34.49 -63.56,32.98 -59.93,31.20"/>
    </edge>
    <edge id=":J4_7" function="internal">
        <lane id=":J4_7_0" index="0" speed="13.89" length="18.46" shape="-75.94,35.93 -71.68,36.33 -66.86,37.40 -62.15,38.91 -58.21,40.63"/>
    </edge>
    <edge id=":J4_8" function="internal">
        <lane id=":J4_8_0" index="0" speed="7.59" length="5.34" shape="-75.94,35.93 -71.57,36.53 -70.80,37.06"/>
    </edge>
    <edge id=":J4_13" function="internal">
        <lane id=":J4_13_0" index="0" speed="7.59" length="10.05" shape="-70.80,37.06 -68.86,38.38 -67.79,41.49 -68.38,45.86"/>
    </edge>
    <edge id=":J4_9" function="internal">
        <lane id=":J4_9_0" index="0" speed="5.98" length="9.08" shape="-71.46,44.99 -71.11,42.41 -71.74,40.58 -73.34,39.48 -75.92,39.13"/>
    </edge>
    <edge id=":J4_10" function="internal">
        <lane id=":J4_10_0" index="0" speed="13.89" length="18.27" shape="-71.46,44.99 -69.69,41.16 -66.81,37.22 -63.37,33.73 -59.93,31.20"/>
    </edge>
    <edge id=":J4_11" function="internal">
        <lane id=":J4_11_0" index="0" speed="8.07" length="16.75" shape="-71.46,44.99 -69.59,41.03 -66.75,38.98 -62.96,38.85 -58.21,40.63"/>
    </edge>
    <edge id=":J5_0" function="internal">
        <lane id=":J5_0_0" index="0" speed="6.46" length="14.10" shape="-136.72,44.45 -139.47,40.91 -139.82,38.37 -137.77,36.83 -133.32,36.29"/>
    </edge>
    <edge id=":J5_1" function="internal">
        <lane id=":J5_1_0" index="0" speed="4.10" length="4.70" shape="-133.30,39.49 -134.78,39.67 -135.47,40.18 -135.35,41.03 -134.43,42.21"/>
    </edge>
    <edge id=":J6_0" function="internal">
        <lane id=":J6_0_0" index="0" speed="8.24" length="12.71" shape="5.24,75.94 1.45,74.96 -1.72,75.01 -4.28,76.08 -6.21,78.18"/>
    </edge>
    <edge id=":J6_1" function="internal">
        <lane id=":J6_1_0" index="0" speed="13.89" length="17.65" shape="5.24,75.94 1.35,74.45 -2.97,72.68 -7.23,70.80 -10.97,68.97"/>
    </edge>
    <edge id=":J6_2" function="internal">
        <lane id=":J6_2_0" index="0" speed="7.38" length="5.29" shape="5.24,75.94 0.54,73.51"/>
    </edge>
    <edge id=":J6_12" function="internal">
        <lane id=":J6_12_0" index="0" speed="7.38" length="12.05" shape="0.54,73.51 -1.31,70.68 -0.31,67.45 3.53,63.82"/>
    </edge>
    <edge id=":J6_3" function="internal">
        <lane id=":J6_3_0" index="0" speed="5.60" length="9.33" shape="5.41,66.41 3.34,68.36 2.81,70.10 3.80,71.62 6.33,72.93"/>
    </edge>
    <edge id=":J6_4" function="internal">
        <lane id=":J6_4_0" index="0" speed="13.89" length="16.62" shape="5.41,66.41 2.26,68.89 -0.93,71.81 -3.85,74.96 -6.21,78.18"/>
    </edge>
    <edge id=":J6_5" function="internal">
        <lane id=":J6_5_0" index="0" speed="10.85" length="17.51" shape="5.41,66.41 1.05,69.00 -3.14,70.29 -7.14,70.28 -10.97,68.97"/>
    </edge>
    <edge id=":J6_6" function="internal">
        <lane id=":J6_6_0" index="0" speed="9.73" length="13.94" shape="-9.49,66.14 -6.53,67.12 -3.37,67.06 -0.02,65.96 3.53,63.82"/>
    </edge>
    <edge id=":J6_7" function="internal">
        <lane id=":J6_7_0" index="0" speed="13.89" length="17.23" shape="-9.49,66.14 -5.81,67.94 -1.68,69.76 2.50,71.47 6.33,72.93"/>
    </edge>
    <edge id=":J6_8" function="internal">
        <lane id=":J6_8_0" index="0" speed="7.87" length="4.01" shape="-9.49,66.14 -6.24,68.49"/>
    </edge>
    <edge id=":J6_13" function="internal">
        <lane id=":J6_13_0" index="0" speed="7.87" length="10.47" shape="-6.24,68.49 -4.61,71.28 -4.60,74.51 -6.21,78.18"/>
    </edge>
    <edge id=":J6_9" function="internal">
        <lane id=":J6_9_0" index="0" speed="6.35" length="9.04" shape="-8.93,76.49 -7.92,74.19 -7.93,72.18 -8.94,70.44 -10.97,68.97"/>
    </edge>
    <edge id=":J6_10" function="internal">
        <lane id=":J6_10_0" index="0" speed="13.89" length="17.84" shape="-8.93,76.49 -6.44,73.13 -3.22,69.67 0.25,66.45 3.53,63.82"/>
    </edge>
    <edge id=":J6_11" function="internal">
        <lane id=":J6_11_0" index="0" speed="9.48" length="17.11" shape="-8.93,76.49 -6.24,73.48 -2.80,71.88 1.39,71.70 6.33,72.93"/>
    </edge>
    <edge id=":J7_0" function="internal">
        <lane id=":J7_0_0" index="0" speed="6.13" length="6.51" shape="120.50,68.39 120.64,70.12 120.25,71.59 119.33,72.80 117.88,73.75"/>
    </edge>
    <edge id=":J7_1" function="internal">
        <lane id=":J7_1_0" index="0" speed="3.93" length="2.17" shape="116.50,70.86 116.98,70.54 117.29,70.14 117.42,69.65 117.37,69.07"/>
    </edge>
    <edge id=":J8_0" function="internal">
        <lane id=":J8_0_0" index="0" speed="5.73" length="9.19" shape="55.46,37.28 54.67,34.67 53.35,33.36 51.48,33.35 49.08,34.65"/>
    </edge>
    <edge id=":J8_1" function="internal">
        <lane id=":J8_1_0" index="0" speed="9.67" length="15.60" shape="55.46,37.28 55.15,32.59 55.85,28.73 57.56,25.70 60.28,23.51"/>
    </edge>
    <edge id=":J8_2" function="internal">
        <lane id=":J8_2_0" index="0" speed="8.43" length="11.67" shape="61.83,26.31 59.95,27.89 58.79,30.16 58.35,33.13 58.62,36.78"/>
    </edge>
    <edge id=":J8_3" function="internal">
        <lane id=":J8_3_0" index="0" speed="13.89" length="15.25" shape="61.83,26.31 58.56,28.22 55.33,30.28 52.16,32.44 49.08,34.65"/>
    </edge>
    <edge id=":J8_4" function="internal">
        <lane id=":J8_4_0" index="0" speed="13.89" length="15.64" shape="47.20,32.06 50.33,29.82 53.61,27.59 56.96,25.45 60.28,23.51"/>
    </edge>
    <edge id=":J8_5" function="internal">
        <lane id=":J8_5_0" index="0" speed="7.43" length="4.88" shape="47.20,32.06 51.50,29.74"/>
    </edge>
    <edge id=":J8_6" function="internal">
        <lane id=":J8_6_0" index="0" speed="7.43" length="11.56" shape="51.50,29.74 54.83,29.76 57.21,32.11 58.62,36.78"/>
    </edge>
    <edge id=":J9_0" function="internal">
        <lane id=":J9_0_0" index="0" speed="3.65" length="4.67" shape="145.84,150.43 146.36,151.78 146.23,152.66 145.44,153.09 144.00,153.05"/>
    </edge>

    <edge id="-E20" from="J2" to="J1" priority="-1" length="80.00">
        <lane id="-E20_0" index="0" speed="13.89" length="80.00" shape="-88.83,101.87 -145.27,149.72"/>
    </edge>
    <edge id="-E21" from="J3" to="J2" priority="-1" length="20.00">
        <lane id="-E21_0" index="0" speed="13.89" length="20.00" shape="-36.94,119.49 -78.76,100.12"/>
    </edge>
    <edge id="-E22" from="J6" to="J3" priority="-1" length="30.00">
        <lane id="-E22_0" index="0" speed="13.89" length="30.00" shape="-6.21,78.18 -30.85,117.68"/>
    </edge>
    <edge id="-E23" from="J4" to="J2" priority="-1" length="30.00">
        <lane id="-E23_0" index="0" speed="13.89" length="30.00" shape="-68.38,45.86 -80.06,87.11"/>
    </edge>
    <edge id="-E24" from="J6" to="J4" priority="-1" length="40.00">
        <lane id="-E24_0" index="0" speed="13.89" length="40.00" shape="-10.97,68.97 -59.69,43.46"/>
    </edge>
    <edge id="-E25" from="J5" to="J2" priority="-1" length="60.00">
        <lane id="-E25_0" index="0" speed="13.89" length="60.00" shape="-134.43,42.21 -89.71,87.92"/>
    </edge>
    <edge id="-E26" from="J4" to="J5" priority="-1" length="40.00">
        <lane id="-E26_0" index="0" speed="13.89" length="40.00" shape="-75.92,39.13 -133.30,39.49"/>
    </edge>
    <edge id="-E27" from="J15" to="J6" priority="-1" length="30.00">
        <lane id="-E27_0" index="0" speed="13.89" length="30.00" shape="57.13,94.79 5.24,75.94"/>
    </edge>
    <edge id="-E28" from="J8" to="J15" priority="-1" length="20.00">
        <lane id="-E28_0" index="0" speed="13.89" length="20.00" shape="58.62,36.78 66.64,86.94"/>
    </edge>
    <edge id="-E29" from="J8" to="J6" priority="-1" length="20.00">
        <lane id="-E29_0" index="0" speed="13.89" length="20.00" shape="49.08,34.65 5.41,66.41"/>
    </edge>
    <edge id="-E30" from="J7" to="J15" priority="-1" length="2.00">
        <lane id="-E30_0" index="0" speed="13.89" length="2.00" shape="117.88,73.75 75.78,93.87"/>
    </edge>
    <edge id="-E31" from="J10" to="J7" priority="-1" length="70.00">
        <lane id="-E31_0" index="0" speed="13.89" length="70.00" shape="107.42,8.85 120.50,68.39"/>
    </edge>
    <edge id="-E32" from="J8" to="J10" priority="-1" length="80.00">
        <lane id="-E32_0" index="0" speed="13.89" length="80.00" shape="60.28,23.51 95.53,4.00"/>
    </edge>
    <edge id="-E33" from="J12" to="J4" priority="-1" length="100.00">
        <lane id="-E33_0" index="0" speed="13.89" length="100.00" shape="-4.46,3.12 -58.34,33.98"/>
    </edge>
    <edge id="-E34" from="J11" to="J12" priority="-1" length="100.00">
        <lane id="-E34_0" index="0" speed="13.89" length="100.00" shape="56.72,-27.48 -4.54,3.16"/>
    </edge>
    <edge id="-E35" from="J10" to="J11" priority="-1" length="50.00">
        <lane id="-E35_0" index="0" speed="13.89" length="50.00" shape="95.98,-3.09 66.93,-25.32"/>
    </edge>
    <edge id="-E36" from="J13" to="J11" priority="-1" length="50.00">
        <lane id="-E36_0" index="0" speed="13.89" length="50.00" shape="112.76,-68.17 68.91,-35.25"/>
    </edge>
    <edge id="-E37" from="J10" to="J13" priority="-1" length="100.00">
        <lane id="-E37_0" index="0" speed="13.89" length="100.00" shape="104.74,-8.96 117.58,-65.03"/>
    </edge>
    <edge id="-E38" from="J14" to="J13" priority="-1" length="20.00">
        <lane id="-E38_0" index="0" speed="13.89" length="20.00" shape="151.31,-20.23 126.55,-65.44"/>
    </edge>
    <edge id="-E39" from="J10" to="J14" priority="-1" length="80.00">
        <lane id="-E39_0" index="0" speed="13.89" length="80.00" shape="112.83,-3.89 150.47,-17.96"/>
    </edge>
    <edge id="-E40" from="J9" to="J15" priority="-1" length="80.00">
        <lane id="-E40_0" index="0" speed="13.89" length="80.00" shape="144.00,153.05 73.36,103.27"/>
    </edge>
    <edge id="E20" from="J1" to="J2" priority="-1" length="80.00">
        <lane id="E20_0" index="0" speed="13.89" length="80.00" shape="-147.33,147.28 -90.90,99.43"/>
    </edge>
    <edge id="E21" from="J2" to="J3" priority="-1" length="20.00">
        <lane id="E21_0" index="0" speed="13.89" length="20.00" shape="-77.41,97.22 -35.59,116.59"/>
    </edge>
    <edge id="E22" from="J3" to="J6" priority="-1" length="30.00">
        <lane id="E22_0" index="0" speed="13.89" length="30.00" shape="-33.56,115.98 -8.93,76.49"/>
    </edge>
    <edge id="E23" from="J2" to="J4" priority="-1" length="30.00">
        <lane id="E23_0" index="0" speed="13.89" length="30.00" shape="-83.14,86.24 -71.46,44.99"/>
    </edge>
    <edge id="E24" from="J4" to="J6" priority="-1" length="40.00">
        <lane id="E24_0" index="0" speed="13.89" length="40.00" shape="-58.21,40.63 -9.49,66.14"/>
    </edge>
    <edge id="E25" from="J2" to="J5" priority="-1" length="60.00">
        <lane id="E25_0" index="0" speed="13.89" length="60.00" shape="-91.99,90.15 -136.72,44.45"/>
    </edge>
    <edge id="E26" from="J5" to="J4" priority="-1" length="40.00">
        <lane id="E26_0" index="0" speed="13.89" length="40.00" shape="-133.32,36.29 -75.94,35.93"/>
    </edge>
    <edge id="E27" from="J6" to="J15" priority="-1" length="30.00">
        <lane id="E27_0" index="0" speed="13.89" length="30.00" shape="6.33,72.93 58.23,91.78"/>
    </edge>
    <edge id="E28" from="J15" to="J8" priority="-1" length="20.00">
        <lane id="E28_0" index="0" speed="13.89" length="20.00" shape="63.48,87.44 55.46,37.28"/>
    </edge>
    <edge id="E29" from="J6" to="J8" priority="-1" length="20.00">
        <lane id="E29_0" index="0" speed="13.89" length="20.00" shape="3.53,63.82 47.20,32.06"/>
    </edge>
    <edge id="E30" from="J15" to="J7" priority="-1" length="2.00">
        <lane id="E30_0" index="0" speed="13.89" length="2.00" shape="74.40,90.99 116.50,70.86"/>
    </edge>
    <edge id="E31" from="J7" to="J10" priority="-1" length="70.00">
        <lane id="E31_0" index="0" speed="13.89" length="70.00" shape="117.37,69.07 104.30,9.53"/>
    </edge>
    <edge id="E32" from="J10" to="J8" priority="-1" length="80.00">
        <lane id="E32_0" index="0" speed="13.89" length="80.00" shape="97.08,6.80 61.83,26.31"/>
    </edge>
    <edge id="E33" from="J4" to="J12" priority="-1" length="100.00">
        <lane id="E33_0" index="0" speed="13.89" length="100.00" shape="-59.93,31.20 -6.06,0.34"/>
    </edge>
    <edge id="E34" from="J12" to="J11" priority="-1" length="100.00">
        <lane id="E34_0" index="0" speed="13.89" length="100.00" shape="-5.98,0.30 55.29,-30.34"/>
    </edge>
    <edge id="E35" from="J11" to="J10" priority="-1" length="50.00">
        <lane id="E35_0" index="0" speed="13.89" length="50.00" shape="68.87,-27.86 97.92,-5.64"/>
    </edge>
    <edge id="E36" from="J11" to="J13" priority="-1" length="50.00">
        <lane id="E36_0" index="0" speed="13.89" length="50.00" shape="66.98,-37.81 110.84,-70.73"/>
    </edge>