<?xml version="1.0" encoding="UTF-8"?>

<!-- generated on 2023-01-14 13:29:18 by Eclipse SUMO netedit Version 1.14.1
<configuration xmlns:xsi="http://www.w3.org/2001/XMLSchema-instance" xsi:noNamespaceSchemaLocation="http://sumo.dlr.de/xsd/netconvertConfiguration.xsd">

    <input>
        <sumo-net-file value="C:\Users\RenatoPC\Desktop\Drive\7moCiclo\Multiagentes\Trabajo%20Final%20Multiagentes\Codigo%20Github\sistemaMultiagenteDeRepartidores\Red.net.xml"/>
    </input>

    <output>
        <output-file value="C:\Users\RenatoPC\Desktop\Drive\7moCiclo\Multiagentes\Trabajo%20Final%20Multiagentes\Codigo%20Github\sistemaMultiagenteDeRepartidores\Red2Way.net.xml"/>
    </output>

    <processing>
        <geometry.min-radius.fix.railways value="false"/>
        <geometry.max-grade.fix value="false"/>
        <offset.disable-normalization value="true"/>
        <lefthand value="false"/>
    </processing>

    <junctions>
        <no-turnarounds value="true"/>
        <junctions.corner-detail value="5"/>
        <junctions.limit-turn-speed value="5.5"/>
        <rectangular-lane-cut value="false"/>
    </junctions>

    <pedestrian>
        <walkingareas value="false"/>
    </pedestrian>

</configuration>
-->

<net version="1.9" junctionCornerDetail="5" limitTurnSpeed="5.50" xmlns:xsi="http://www.w3.org/2001/XMLSchema-instance" xsi:noNamespaceSchemaLocation="http://sumo.dlr.de/xsd/net_file.xsd">

    <location netOffset="0.00,0.00" convBoundary="-196.48,-139.96,268.02,199.82" origBoundary="-10000000000.00,-10000000000.00,10000000000.00,10000000000.00" projParameter="!"/>

    <edge id=":J1_0" function="internal">
        <lane id=":J1_0_0" index="0" speed="3.65" length="4.67" shape="-195.35,200.95 -196.76,201.24 -197.61,200.95 -197.89,200.11 -197.61,198.69"/>
    </edge>
    <edge id=":J10_0" function="internal">
        <lane id=":J10_0_0" index="0" speed="6.14" length="9.31" shape="160.91,-4.84 160.11,-7.29 158.70,-8.68 156.69,-9.03 154.06,-8.34"/>
    </edge>
    <edge id=":J10_1" function="internal">
        <lane id=":J10_1_0" index="0" speed="13.89" length="24.78" shape="160.91,-4.84 159.42,-11.34 157.29,-16.59 154.31,-21.48 150.28,-26.86"/>
    </edge>
    <edge id=":J10_2" function="internal">
        <lane id=":J10_2_0" index="0" speed="13.89" length="28.70" shape="160.91,-4.84 160.29,-12.21 160.78,-19.51 162.22,-26.72 164.43,-33.83"/>
        <lane id=":J10_2_1" index="1" speed="13.89" length="28.70" shape="164.06,-5.37 163.42,-12.48 163.86,-19.23 165.25,-25.88 167.44,-32.74"/>
    </edge>
    <edge id=":J10_4" function="internal">
        <lane id=":J10_4_0" index="0" speed="10.16" length="23.30" shape="164.06,-5.37 164.80,-10.59 168.06,-15.62 172.86,-19.62 178.23,-21.78"/>
    </edge>
    <edge id=":J10_5" function="internal">
        <lane id=":J10_5_0" index="0" speed="8.09" length="14.39" shape="179.36,-15.48 174.98,-14.23 172.02,-12.30 170.49,-9.70 170.38,-6.42"/>
    </edge>
    <edge id=":J10_6" function="internal">
        <lane id=":J10_6_0" index="0" speed="13.89" length="26.69" shape="179.36,-15.48 172.55,-14.16 166.48,-12.69 160.53,-10.83 154.06,-8.34"/>
        <lane id=":J10_6_1" index="1" speed="13.89" length="26.69" shape="178.79,-18.63 171.88,-17.28 165.58,-15.74 159.40,-13.81 152.83,-11.29"/>
    </edge>
    <edge id=":J10_8" function="internal">
        <lane id=":J10_8_0" index="0" speed="13.89" length="5.14" shape="178.79,-18.63 173.66,-18.34"/>
    </edge>
    <edge id=":J10_9" function="internal">
        <lane id=":J10_9_0" index="0" speed="8.86" length="4.65" shape="178.79,-18.63 174.14,-18.44"/>
    </edge>
    <edge id=":J10_25" function="internal">
        <lane id=":J10_25_0" index="0" speed="13.89" length="24.29" shape="173.66,-18.34 171.24,-18.21 164.40,-19.76 158.25,-23.30 152.80,-28.83"/>
    </edge>
    <edge id=":J10_26" function="internal">
        <lane id=":J10_26_0" index="0" speed="8.86" length="20.05" shape="174.14,-18.44 171.49,-18.33 167.17,-20.58 165.81,-25.38 167.44,-32.74"/>
    </edge>
    <edge id=":J10_10" function="internal">
        <lane id=":J10_10_0" index="0" speed="5.76" length="9.58" shape="173.46,-30.57 172.80,-27.65 173.28,-25.74 174.90,-24.83 177.66,-24.93"/>
    </edge>
    <edge id=":J10_11" function="internal">
        <lane id=":J10_11_0" index="0" speed="13.89" length="24.70" shape="173.46,-30.57 171.32,-24.21 170.03,-18.66 169.69,-13.03 170.38,-6.42"/>
    </edge>
    <edge id=":J10_12" function="internal">
        <lane id=":J10_12_0" index="0" speed="13.89" length="30.36" shape="173.46,-30.57 170.00,-22.94 165.61,-16.69 160.30,-11.82 154.06,-8.34"/>
        <lane id=":J10_12_1" index="1" speed="13.89" length="27.71" shape="170.45,-31.66 167.28,-24.64 163.28,-18.90 158.47,-14.45 152.83,-11.29"/>
    </edge>
    <edge id=":J10_14" function="internal">
        <lane id=":J10_14_0" index="0" speed="8.81" length="24.87" shape="170.45,-31.66 167.00,-24.96 162.90,-22.26 158.17,-23.55 152.80,-28.83"/>
    </edge>
    <edge id=":J10_15" function="internal">
        <lane id=":J10_15_0" index="0" speed="5.63" length="9.28" shape="157.84,-32.77 159.85,-30.80 161.61,-30.32 163.14,-31.33 164.43,-33.83"/>
    </edge>
    <edge id=":J10_16" function="internal">
        <lane id=":J10_16_0" index="0" speed="12.43" length="22.47" shape="157.84,-32.77 162.01,-28.53 166.71,-25.81 171.92,-24.61 177.66,-24.93"/>
    </edge>
    <edge id=":J10_17" function="internal">
        <lane id=":J10_17_0" index="0" speed="13.89" length="28.69" shape="157.84,-32.77 162.17,-26.72 165.80,-20.34 168.59,-13.59 170.38,-6.42"/>
        <lane id=":J10_17_1" index="1" speed="13.89" length="28.69" shape="155.32,-30.80 159.55,-24.97 162.97,-19.09 165.53,-12.84 167.22,-5.89"/>
    </edge>
    <edge id=":J10_19" function="internal">
        <lane id=":J10_19_0" index="0" speed="9.39" length="24.01" shape="155.32,-30.80 159.25,-24.36 160.15,-18.96 158.01,-14.60 152.83,-11.29"/>
    </edge>
    <edge id=":J10_20" function="internal">
        <lane id=":J10_20_0" index="0" speed="6.69" length="11.59" shape="150.37,-17.20 152.47,-18.68 153.16,-20.79 152.43,-23.51 150.28,-26.86"/>
    </edge>
    <edge id=":J10_21" function="internal">
        <lane id=":J10_21_0" index="0" speed="13.89" length="22.40" shape="150.37,-17.20 154.81,-19.72 158.63,-23.33 161.84,-28.04 164.43,-33.83"/>
    </edge>
    <edge id=":J10_22" function="internal">
        <lane id=":J10_22_0" index="0" speed="13.89" length="28.08" shape="150.37,-17.20 157.14,-19.78 163.79,-21.84 170.54,-23.52 177.66,-24.93"/>
        <lane id=":J10_22_1" index="1" speed="13.89" length="28.08" shape="151.60,-14.24 158.27,-16.80 164.68,-18.79 171.21,-20.40 178.23,-21.78"/>
    </edge>
    <edge id=":J10_24" function="internal">
        <lane id=":J10_24_0" index="0" speed="9.01" length="6.04" shape="151.60,-14.24 157.45,-15.77"/>
    </edge>
    <edge id=":J10_27" function="internal">
        <lane id=":J10_27_0" index="0" speed="9.01" length="15.43" shape="157.45,-15.77 157.57,-15.80 162.16,-14.93 165.38,-11.63 167.22,-5.89"/>
    </edge>
    <edge id=":J11_0" function="internal">
        <lane id=":J11_0_0" index="0" speed="7.07" length="11.54" shape="94.69,-97.95 92.06,-100.73 89.58,-102.16 87.25,-102.24 85.07,-100.97"/>
    </edge>
    <edge id=":J11_1" function="internal">
        <lane id=":J11_1_0" index="0" speed="8.82" length="23.23" shape="97.21,-99.92 93.77,-105.84 93.61,-110.61 96.71,-114.23 103.09,-116.71"/>
    </edge>
    <edge id=":J11_2" function="internal">
        <lane id=":J11_2_0" index="0" speed="5.78" length="9.16" shape="104.57,-110.48 102.06,-109.51 100.83,-108.08 100.90,-106.20 102.25,-103.86"/>
    </edge>
    <edge id=":J11_3" function="internal">
        <lane id=":J11_3_0" index="0" speed="13.89" length="22.87" shape="104.57,-110.48 98.45,-108.97 93.93,-107.40 89.85,-104.99 85.07,-100.97"/>
        <lane id=":J11_3_1" index="1" speed="13.89" length="22.87" shape="103.83,-113.60 97.49,-111.97 92.47,-110.14 87.90,-107.46 82.90,-103.32"/>
    </edge>
    <edge id=":J11_5" function="internal">
        <lane id=":J11_5_0" index="0" speed="13.89" length="26.08" shape="78.56,-108.03 84.01,-112.41 89.56,-115.60 95.56,-117.96 102.35,-119.82"/>
        <lane id=":J11_5_1" index="1" speed="13.89" length="26.08" shape="80.73,-105.67 85.96,-109.93 91.02,-112.87 96.53,-114.96 103.09,-116.71"/>
    </edge>
    <edge id=":J11_7" function="internal">
        <lane id=":J11_7_0" index="0" speed="9.65" length="5.41" shape="80.73,-105.67 85.29,-108.58"/>
    </edge>
    <edge id=":J11_8" function="internal">
        <lane id=":J11_8_0" index="0" speed="9.65" length="17.02" shape="85.29,-108.58 85.41,-108.66 90.14,-109.03 94.91,-106.77 99.73,-101.89"/>
    </edge>
    <edge id=":J12_0" function="internal">
        <lane id=":J12_0_0" index="0" speed="13.89" length="2.67" shape="22.18,-42.95 21.50,-42.33 21.00,-41.93 20.46,-41.61 19.64,-41.18"/>
        <lane id=":J12_0_1" index="1" speed="13.89" length="2.67" shape="20.01,-45.30 19.52,-44.86 19.17,-44.58 18.78,-44.34 18.19,-44.04"/>
    </edge>
    <edge id=":J12_2" function="internal">
        <lane id=":J12_2_0" index="0" speed="13.89" length="0.89" shape="15.31,-49.75 15.43,-49.81 15.50,-49.86 15.57,-49.91 15.67,-50.00"/>
        <lane id=":J12_2_1" index="1" speed="13.89" length="0.89" shape="16.75,-46.90 17.10,-47.08 17.34,-47.22 17.55,-47.39 17.84,-47.65"/>
    </edge>
    <edge id=":J13_0" function="internal">
        <lane id=":J13_0_0" index="0" speed="5.52" length="9.51" shape="212.56,-122.22 210.76,-124.59 209.13,-125.29 207.64,-124.31 206.30,-121.65"/>
    </edge>
    <edge id=":J13_1" function="internal">
        <lane id=":J13_1_0" index="0" speed="11.34" length="22.95" shape="212.56,-122.22 208.70,-127.40 204.23,-130.69 199.17,-132.10 193.50,-131.63"/>
        <lane id=":J13_1_1" index="1" speed="12.29" length="27.08" shape="215.32,-123.82 210.80,-129.87 205.53,-133.71 199.52,-135.33 192.76,-134.74"/>
    </edge>
    <edge id=":J13_3" function="internal">
        <lane id=":J13_3_0" index="0" speed="13.89" length="35.32" shape="191.28,-140.97 200.21,-141.78 208.11,-139.73 215.00,-134.81 220.86,-127.04"/>
        <lane id=":J13_3_1" index="1" speed="13.16" length="31.20" shape="192.02,-137.85 199.86,-138.55 206.82,-136.72 212.90,-132.34 218.09,-125.43"/>
    </edge>
    <edge id=":J13_5" function="internal">
        <lane id=":J13_5_0" index="0" speed="8.66" length="6.56" shape="192.02,-137.85 198.58,-137.90"/>
    </edge>
    <edge id=":J13_8" function="internal">
        <lane id=":J13_8_0" index="0" speed="8.66" length="17.70" shape="198.58,-137.90 202.81,-134.90 204.46,-129.60 203.29,-122.74"/>
    </edge>
    <edge id=":J13_6" function="internal">
        <lane id=":J13_6_0" index="0" speed="5.95" length="10.64" shape="197.27,-124.91 198.16,-128.45 197.83,-130.75 196.28,-131.81 193.50,-131.63"/>
    </edge>
    <edge id=":J13_7" function="internal">
        <lane id=":J13_7_0" index="0" speed="8.27" length="23.37" shape="200.28,-123.82 203.78,-129.22 208.58,-131.35 213.68,-130.12 218.09,-125.43"/>
    </edge>
    <edge id=":J14_0" function="internal">
        <lane id=":J14_0_0" index="0" speed="9.02" length="23.18" shape="267.58,-46.59 270.11,-40.37 269.67,-35.52 266.26,-32.04 259.88,-29.94"/>
        <lane id=":J14_0_1" index="1" speed="7.70" length="16.55" shape="264.82,-44.98 266.62,-40.54 266.31,-37.07 263.87,-34.59 259.31,-33.09"/>
    </edge>
    <edge id=":J14_2" function="internal">
        <lane id=":J14_2_0" index="0" speed="3.92" length="3.31" shape="258.18,-39.39 259.09,-39.69 259.58,-40.19 259.64,-40.88 259.28,-41.77"/>
        <lane id=":J14_2_1" index="1" speed="6.11" length="9.93" shape="258.75,-36.24 261.48,-37.14 262.94,-38.63 263.13,-40.71 262.05,-43.38"/>
    </edge>
    <edge id=":J15_0" function="internal">
        <lane id=":J15_0_0" index="0" speed="13.89" length="32.98" shape="107.30,135.02 100.53,130.87 93.21,126.60 85.80,122.51 78.75,118.87"/>
        <lane id=":J15_0_1" index="1" speed="13.89" length="32.98" shape="109.01,132.31 102.20,128.13 94.78,123.81 87.26,119.67 80.17,116.00"/>
    </edge>
    <edge id=":J15_2" function="internal">
        <lane id=":J15_2_0" index="0" speed="13.89" length="6.70" shape="109.01,132.31 103.69,128.23"/>
    </edge>
    <edge id=":J15_3" function="internal">
        <lane id=":J15_3_0" index="0" speed="8.27" length="3.02" shape="109.01,132.31 106.89,130.16"/>
    </edge>
    <edge id=":J15_16" function="internal">
        <lane id=":J15_16_0" index="0" speed="13.89" length="25.83" shape="103.69,128.23 102.05,126.97 96.84,120.82 93.38,113.87 91.66,106.13"/>
    </edge>
    <edge id=":J15_17" function="internal">
        <lane id=":J15_17_0" index="0" speed="8.27" length="20.35" shape="106.89,130.16 104.49,127.73 103.45,122.58 105.76,117.87 111.29,114.58"/>
    </edge>
    <edge id=":J15_4" function="internal">
        <lane id=":J15_4_0" index="0" speed="5.52" length="9.51" shape="113.23,120.68 110.52,121.91 109.48,123.36 110.12,125.03 112.43,126.90"/>
    </edge>
    <edge id=":J15_5" function="internal">
        <lane id=":J15_5_0" index="0" speed="13.89" length="33.95" shape="113.23,120.68 105.08,122.30 95.78,122.57 86.58,121.45 78.75,118.87"/>
        <lane id=":J15_5_1" index="1" speed="13.89" length="33.95" shape="112.26,117.63 104.48,119.28 96.00,119.61 87.62,118.55 80.17,116.00"/>
    </edge>
    <edge id=":J15_7" function="internal">
        <lane id=":J15_7_0" index="0" speed="10.36" length="28.34" shape="112.26,117.63 103.93,119.15 97.72,117.74 93.63,113.40 91.66,106.13"/>
    </edge>
    <edge id=":J15_8" function="internal">
        <lane id=":J15_8_0" index="0" speed="8.00" length="16.41" shape="98.02,105.47 99.17,109.46 101.60,111.81 105.32,112.50 110.32,111.53"/>
    </edge>
    <edge id=":J15_9" function="internal">
        <lane id=":J15_9_0" index="0" speed="13.89" length="26.74" shape="98.02,105.47 99.44,111.76 102.31,117.43 106.64,122.48 112.43,126.90"/>
        <lane id=":J15_9_1" index="1" speed="13.89" length="29.64" shape="94.84,105.80 96.41,112.81 99.58,119.12 104.35,124.72 110.72,129.61"/>
    </edge>
    <edge id=":J15_11" function="internal">
        <lane id=":J15_11_0" index="0" speed="8.81" length="24.90" shape="94.84,105.80 94.64,113.33 92.13,117.55 87.30,118.44 80.17,116.00"/>
    </edge>
    <edge id=":J15_12" function="internal">
        <lane id=":J15_12_0" index="0" speed="5.63" length="9.28" shape="83.00,110.26 85.66,111.17 87.46,110.84 88.40,109.27 88.48,106.46"/>
    </edge>
    <edge id=":J15_13" function="internal">
        <lane id=":J15_13_0" index="0" speed="13.89" length="29.31" shape="83.00,110.26 89.86,113.23 96.93,115.22 104.11,115.81 111.29,114.58"/>
    </edge>
    <edge id=":J15_14" function="internal">
        <lane id=":J15_14_0" index="0" speed="13.89" length="33.65" shape="83.00,110.26 90.19,113.98 97.91,118.24 105.52,122.67 112.43,126.90"/>
        <lane id=":J15_14_1" index="1" speed="13.89" length="33.65" shape="81.58,113.13 88.73,116.82 96.34,121.03 103.86,125.40 110.72,129.61"/>
    </edge>
    <edge id=":J2_0" function="internal">
        <lane id=":J2_0_0" index="0" speed="12.85" length="16.86" shape="-106.33,127.65 -111.48,127.71 -115.84,128.43 -119.41,129.82 -122.19,131.89"/>
    </edge>
    <edge id=":J2_1" function="internal">
        <lane id=":J2_1_0" index="0" speed="13.89" length="32.27" shape="-106.33,127.65 -113.87,126.26 -120.62,122.88 -126.61,117.52 -131.83,110.17"/>
        <lane id=":J2_1_1" index="1" speed="13.89" length="29.08" shape="-106.17,124.46 -112.89,123.20 -118.94,120.13 -124.33,115.25 -129.06,108.56"/>
    </edge>
    <edge id=":J2_3" function="internal">
        <lane id=":J2_3_0" index="0" speed="9.32" length="25.03" shape="-106.17,124.46 -112.50,123.02 -115.93,119.52 -116.48,113.93 -114.14,106.26"/>
    </edge>
    <edge id=":J2_4" function="internal">
        <lane id=":J2_4_0" index="0" speed="6.57" length="11.77" shape="-108.27,108.81 -109.57,112.74 -109.61,115.59 -108.36,117.37 -105.85,118.06"/>
    </edge>
    <edge id=":J2_5" function="internal">
        <lane id=":J2_5_0" index="0" speed="13.89" length="26.54" shape="-108.27,108.81 -111.13,115.29 -114.08,121.13 -117.60,126.58 -122.19,131.89"/>
        <lane id=":J2_5_1" index="1" speed="13.89" length="26.54" shape="-111.20,107.54 -113.97,113.86 -116.68,119.36 -119.98,124.48 -124.46,129.63"/>
    </edge>
    <edge id=":J2_7" function="internal">
        <lane id=":J2_7_0" index="0" speed="8.83" length="5.53" shape="-111.20,107.54 -114.02,112.29"/>
    </edge>
    <edge id=":J2_16" function="internal">
        <lane id=":J2_16_0" index="0" speed="8.83" length="20.47" shape="-114.02,112.29 -115.29,114.43 -119.62,116.89 -124.22,114.94 -129.06,108.56"/>
    </edge>
    <edge id=":J2_8" function="internal">
        <lane id=":J2_8_0" index="0" speed="5.56" length="9.39" shape="-123.52,105.36 -121.77,107.66 -120.11,108.36 -118.55,107.47 -117.07,104.98"/>
    </edge>
    <edge id=":J2_9" function="internal">
        <lane id=":J2_9_0" index="0" speed="13.22" length="22.70" shape="-123.52,105.36 -119.78,110.71 -115.58,114.62 -110.94,117.07 -105.85,118.06"/>
        <lane id=":J2_9_1" index="1" speed="13.89" length="25.89" shape="-126.29,106.96 -122.05,112.98 -117.26,117.37 -111.91,120.13 -106.01,121.26"/>
    </edge>
    <edge id=":J2_11" function="internal">
        <lane id=":J2_11_0" index="0" speed="11.52" length="24.40" shape="-126.29,106.96 -122.81,114.18 -121.35,120.37 -121.90,125.52 -124.46,129.63"/>
    </edge>
    <edge id=":J2_12" function="internal">
        <lane id=":J2_12_0" index="0" speed="9.43" length="16.09" shape="-129.00,125.12 -127.80,122.80 -127.87,119.53 -129.21,115.32 -131.83,110.17"/>
    </edge>
    <edge id=":J2_13" function="internal">
        <lane id=":J2_13_0" index="0" speed="13.89" length="24.19" shape="-129.00,125.12 -124.72,120.27 -121.89,115.83 -119.63,111.00 -117.07,104.98"/>
        <lane id=":J2_13_1" index="1" speed="13.89" length="24.19" shape="-126.73,127.38 -122.35,122.37 -119.29,117.60 -116.80,112.43 -114.14,106.26"/>
    </edge>
    <edge id=":J2_15" function="internal">
        <lane id=":J2_15_0" index="0" speed="13.89" length="3.56" shape="-126.73,127.38 -123.90,125.21"/>
    </edge>
    <edge id=":J2_17" function="internal">
        <lane id=":J2_17_0" index="0" speed="13.89" length="18.66" shape="-123.90,125.21 -122.89,124.44 -118.16,122.44 -112.53,121.38 -106.01,121.26"/>
    </edge>
    <edge id=":J3_0" function="internal">
        <lane id=":J3_0_0" index="0" speed="9.17" length="13.20" shape="-11.05,125.60 -12.93,128.51 -15.33,130.54 -18.26,131.67 -21.71,131.93"/>
        <lane id=":J3_0_1" index="1" speed="7.83" length="9.43" shape="-13.93,124.21 -15.27,126.29 -16.99,127.74 -19.08,128.55 -21.55,128.73"/>
    </edge>
    <edge id=":J3_2" function="internal">
        <lane id=":J3_2_0" index="0" speed="3.97" length="1.89" shape="-21.22,122.34 -20.73,122.31 -20.31,122.14 -19.97,121.85 -19.70,121.44"/>
        <lane id=":J3_2_1" index="1" speed="6.21" length="5.66" shape="-21.38,125.54 -19.91,125.43 -18.65,124.94 -17.62,124.07 -16.82,122.83"/>
    </edge>
    <edge id=":J4_0" function="internal">
        <lane id=":J4_0_0" index="0" speed="6.00" length="10.09" shape="-58.75,9.75 -60.82,8.04 -62.74,7.84 -64.52,9.15 -66.15,11.97"/>
    </edge>
    <edge id=":J4_1" function="internal">
        <lane id=":J4_1_0" index="0" speed="13.11" length="22.36" shape="-58.75,9.75 -62.86,6.05 -67.60,3.65 -72.98,2.57 -79.01,2.81"/>
        <lane id=":J4_1_1" index="1" speed="13.89" length="25.56" shape="-56.34,7.66 -61.04,3.39 -66.47,0.63 -72.60,-0.62 -79.45,-0.36"/>
    </edge>
    <edge id=":J4_3" function="internal">
        <lane id=":J4_3_0" index="0" speed="9.23" length="22.86" shape="-56.34,7.66 -60.19,1.90 -61.12,-3.14 -59.13,-7.44 -54.23,-11.02"/>
    </edge>
    <edge id=":J4_4" function="internal">
        <lane id=":J4_4_0" index="0" speed="6.47" length="10.59" shape="-51.34,-5.31 -53.38,-3.74 -54.08,-1.75 -53.45,0.65 -51.50,3.46"/>
    </edge>
    <edge id=":J4_5" function="internal">
        <lane id=":J4_5_0" index="0" speed="13.89" length="24.54" shape="-51.34,-5.31 -57.32,-2.20 -62.06,0.94 -65.88,4.96 -69.08,10.69"/>
    </edge>
    <edge id=":J4_6" function="internal">
        <lane id=":J4_6_0" index="0" speed="13.89" length="28.44" shape="-51.34,-5.31 -58.04,-2.34 -64.81,-0.08 -71.76,1.59 -79.01,2.81"/>
        <lane id=":J4_6_1" index="1" speed="13.89" length="28.44" shape="-52.78,-8.17 -59.32,-5.24 -65.75,-3.10 -72.36,-1.53 -79.45,-0.36"/>
    </edge>
    <edge id=":J4_8" function="internal">
        <lane id=":J4_8_0" index="0" speed="13.89" length="26.36" shape="-80.34,-6.70 -73.56,-7.77 -67.64,-9.12 -61.90,-11.05 -55.67,-13.88"/>
        <lane id=":J4_8_1" index="1" speed="13.89" length="26.36" shape="-79.90,-3.53 -72.96,-4.65 -66.70,-6.11 -60.61,-8.15 -54.23,-11.02"/>
    </edge>
    <edge id=":J4_10" function="internal">
        <lane id=":J4_10_0" index="0" speed="13.89" length="5.57" shape="-79.90,-3.53 -74.33,-3.74"/>
    </edge>
    <edge id=":J4_11" function="internal">
        <lane id=":J4_11_0" index="0" speed="8.81" length="4.59" shape="-79.90,-3.53 -75.31,-3.57"/>
    </edge>
    <edge id=":J4_16" function="internal">
        <lane id=":J4_16_0" index="0" speed="13.89" length="23.18" shape="-74.33,-3.74 -72.22,-3.81 -65.33,-2.39 -59.23,0.73 -53.92,5.56"/>
    </edge>
    <edge id=":J4_17" function="internal">
        <lane id=":J4_17_0" index="0" speed="8.81" length="20.12" shape="-75.31,-3.57 -72.43,-3.60 -68.14,-1.25 -67.03,3.52 -69.08,10.69"/>
    </edge>
    <edge id=":J4_12" function="internal">
        <lane id=":J4_12_0" index="0" speed="5.64" length="9.27" shape="-74.95,8.14 -74.18,5.45 -74.60,3.66 -76.21,2.78 -79.01,2.81"/>
    </edge>
    <edge id=":J4_13" function="internal">
        <lane id=":J4_13_0" index="0" speed="13.89" length="28.75" shape="-74.95,8.14 -71.51,1.47 -67.16,-4.62 -61.89,-9.83 -55.67,-13.88"/>
        <lane id=":J4_13_1" index="1" speed="13.89" length="28.75" shape="-72.02,9.42 -68.81,2.99 -64.97,-2.55 -60.21,-7.22 -54.23,-11.02"/>
    </edge>
    <edge id=":J4_15" function="internal">
        <lane id=":J4_15_0" index="0" speed="8.98" length="24.31" shape="-72.02,9.42 -68.20,3.00 -63.91,0.22 -59.15,1.07 -53.92,5.56"/>
    </edge>
    <edge id=":J5_0" function="internal">
        <lane id=":J5_0_0" index="0" speed="9.04" length="23.82" shape="-182.23,23.15 -184.85,16.71 -184.36,11.78 -180.78,8.36 -174.09,6.45"/>
        <lane id=":J5_0_1" index="1" speed="7.72" length="17.01" shape="-179.46,21.55 -181.33,16.95 -180.99,13.42 -178.42,10.98 -173.65,9.62"/>
    </edge>
    <edge id=":J5_2" function="internal">
        <lane id=":J5_2_0" index="0" speed="3.93" length="3.40" shape="-172.76,15.95 -173.72,16.23 -174.23,16.71 -174.30,17.42 -173.92,18.34"/>
        <lane id=":J5_2_1" index="1" speed="6.13" length="10.21" shape="-173.20,12.78 -176.07,13.60 -177.61,15.07 -177.81,17.18 -176.69,19.94"/>
    </edge>
    <edge id=":J6_0" function="internal">
        <lane id=":J6_0_0" index="0" speed="7.39" length="12.03" shape="17.06,88.36 13.31,86.90 10.29,86.57 7.98,87.39 6.40,89.35"/>
    </edge>
    <edge id=":J6_1" function="internal">
        <lane id=":J6_1_0" index="0" speed="13.89" length="25.20" shape="17.06,88.36 10.96,85.20 5.79,82.00 1.08,78.22 -3.67,73.30"/>
        <lane id=":J6_1_1" index="1" speed="13.89" length="25.20" shape="18.48,85.49 12.54,82.45 7.71,79.52 3.34,76.00 -1.25,71.21"/>
    </edge>
    <edge id=":J6_3" function="internal">
        <lane id=":J6_3_0" index="0" speed="8.82" length="5.49" shape="18.48,85.49 13.94,82.41"/>
    </edge>
    <edge id=":J6_16" function="internal">
        <lane id=":J6_16_0" index="0" speed="8.82" length="17.78" shape="13.94,82.41 12.80,81.64 10.59,77.41 11.84,72.80 16.55,67.81"/>
    </edge>
    <edge id=":J6_4" function="internal">
        <lane id=":J6_4_0" index="0" speed="5.77" length="9.16" shape="20.56,72.79 18.70,74.76 18.21,76.57 19.09,78.24 21.32,79.75"/>
    </edge>
    <edge id=":J6_5" function="internal">
        <lane id=":J6_5_0" index="0" speed="13.89" length="22.77" shape="20.56,72.79 15.67,76.76 12.19,80.04 9.35,83.85 6.40,89.35"/>
        <lane id=":J6_5_1" index="1" speed="13.89" length="22.77" shape="18.55,70.30 13.53,74.44 9.74,78.10 6.60,82.29 3.52,87.97"/>
    </edge>
    <edge id=":J6_7" function="internal">
        <lane id=":J6_7_0" index="0" speed="10.04" length="22.30" shape="18.55,70.30 12.77,74.01 7.54,75.40 2.87,74.47 -1.25,71.21"/>
    </edge>
    <edge id=":J6_8" function="internal">
        <lane id=":J6_8_0" index="0" speed="7.60" length="12.32" shape="3.59,67.01 5.63,68.48 8.14,68.68 11.11,67.63 14.54,65.31"/>
    </edge>
    <edge id=":J6_9" function="internal">
        <lane id=":J6_9_0" index="0" speed="13.89" length="22.69" shape="3.59,67.01 7.86,71.57 11.55,74.56 15.69,76.96 21.32,79.75"/>
        <lane id=":J6_9_1" index="1" speed="13.89" length="22.69" shape="1.17,69.11 5.60,73.79 9.63,77.04 14.11,79.70 19.90,82.62"/>
    </edge>
    <edge id=":J6_11" function="internal">
        <lane id=":J6_11_0" index="0" speed="11.31" length="4.07" shape="1.17,69.11 3.43,72.50"/>
    </edge>
    <edge id=":J6_17" function="internal">
        <lane id=":J6_17_0" index="0" speed="11.31" length="16.15" shape="3.43,72.50 4.07,73.47 5.43,78.06 5.25,82.89 3.52,87.97"/>
    </edge>
    <edge id=":J6_12" function="internal">
        <lane id=":J6_12_0" index="0" speed="9.06" length="12.74" shape="-2.25,85.19 -1.15,81.98 -1.01,78.92 -1.86,76.03 -3.67,73.30"/>
    </edge>
    <edge id=":J6_13" function="internal">
        <lane id=":J6_13_0" index="0" speed="13.89" length="25.57" shape="-2.25,85.19 1.11,79.16 4.85,74.22 9.24,69.79 14.54,65.31"/>
        <lane id=":J6_13_1" index="1" speed="13.89" length="25.57" shape="0.64,86.58 3.86,80.72 7.30,76.16 11.38,72.12 16.55,67.81"/>
    </edge>
    <edge id=":J6_15" function="internal">
        <lane id=":J6_15_0" index="0" speed="9.88" length="22.37" shape="0.64,86.58 3.81,82.25 8.07,80.14 13.44,80.27 19.90,82.62"/>
    </edge>
    <edge id=":J7_0" function="internal">
        <lane id=":J7_0_0" index="0" speed="9.00" length="16.25" shape="185.99,87.47 186.11,91.84 184.88,95.39 182.29,98.10 178.34,99.98"/>
        <lane id=":J7_0_1" index="1" speed="7.69" length="11.61" shape="182.84,88.00 182.92,91.12 182.04,93.65 180.19,95.59 177.37,96.93"/>
    </edge>
    <edge id=":J7_2" function="internal">
        <lane id=":J7_2_0" index="0" speed="3.92" length="2.32" shape="175.43,90.84 176.00,90.57 176.37,90.18 176.54,89.67 176.53,89.05"/>
        <lane id=":J7_2_1" index="1" speed="6.10" length="6.96" shape="176.40,93.88 178.09,93.08 179.20,91.91 179.73,90.40 179.68,88.52"/>
    </edge>
    <edge id=":J8_0" function="internal">
        <lane id=":J8_0_0" index="0" speed="5.62" length="9.30" shape="80.74,31.90 80.09,29.15 78.85,27.81 77.03,27.87 74.62,29.34"/>
    </edge>
    <edge id=":J8_1" function="internal">
        <lane id=":J8_1_0" index="0" speed="11.47" length="23.53" shape="83.92,31.57 83.73,23.95 84.91,17.97 87.45,13.61 91.36,10.88"/>
    </edge>
    <edge id=":J8_2" function="internal">
        <lane id=":J8_2_0" index="0" speed="9.36" length="15.38" shape="93.82,16.79 91.81,18.42 90.54,21.32 90.04,25.48 90.29,30.91"/>
    </edge>
    <edge id=":J8_3" function="internal">
        <lane id=":J8_3_0" index="0" speed="13.89" length="23.51" shape="93.82,16.79 88.02,19.49 83.68,22.16 79.61,25.28 74.62,29.34"/>
        <lane id=":J8_3_1" index="1" speed="13.89" length="23.51" shape="92.59,13.83 86.67,16.61 82.06,19.44 77.72,22.71 72.61,26.85"/>
    </edge>
    <edge id=":J8_5" function="internal">
        <lane id=":J8_5_0" index="0" speed="13.89" length="25.30" shape="68.60,21.86 73.96,17.58 78.83,13.99 83.97,10.85 90.13,7.93"/>
        <lane id=":J8_5_1" index="1" speed="13.89" length="25.30" shape="70.61,24.35 75.84,20.15 80.45,16.71 85.32,13.73 91.36,10.88"/>
    </edge>
    <edge id=":J8_7" function="internal">
        <lane id=":J8_7_0" index="0" speed="8.81" length="5.36" shape="70.61,24.35 75.18,21.56"/>
    </edge>
    <edge id=":J8_8" function="internal">
        <lane id=":J8_8_0" index="0" speed="8.81" length="19.69" shape="75.18,21.56 77.10,20.39 82.02,20.22 85.35,23.83 87.11,31.24"/>
    </edge>
    <edge id=":J9_0" function="internal">
        <lane id=":J9_0_0" index="0" speed="3.65" length="4.67" shape="178.26,172.30 178.85,173.61 178.76,174.50 178.00,174.97 176.56,175.00"/>
    </edge>

    <edge id="-E20" from="J2" to="J1" priority="-1" length="80.00">
        <lane id="-E20_0" index="0" speed="13.89" length="80.00" shape="-122.19,131.89 -193.08,203.20"/>
        <lane id="-E20_1" index="1" speed="13.89" length="80.00" shape="-124.46,129.63 -195.35,200.95"/>
    </edge>
    <edge id="-E21" from="J3" to="J2" priority="-1" length="20.00">
        <lane id="-E21_0" index="0" speed="13.89" length="20.00" shape="-21.71,131.93 -106.33,127.65"/>
        <lane id="-E21_1" index="1" speed="13.89" length="20.00" shape="-21.55,128.73 -106.17,124.46"/>
    </edge>
    <edge id="-E22" from="J6" to="J3" priority="-1" length="30.00">
        <lane id="-E22_0" index="0" speed="13.89" length="30.00" shape="6.40,89.35 -11.05,125.60"/>
        <lane id="-E22_1" index="1" speed="13.89" length="30.00" shape="3.52,87.97 -13.93,124.21"/>
    </edge>
    <edge id="-E23" from="J4" to="J2" priority="-1" length="30.00">
        <lane id="-E23_0" index="0" speed="13.89" length="30.00" shape="-66.15,11.97 -108.27,108.81"/>
        <lane id="-E23_1" index="1" speed="13.89" length="30.00" shape="-69.08,10.69 -111.20,107.54"/>
    </edge>
    <edge id="-E24" from="J6" to="J4" priority="-1" length="40.00">
        <lane id="-E24_0" index="0" speed="13.89" length="40.00" shape="-3.67,73.30 -58.75,9.75"/>
        <lane id="-E24_1" index="1" speed="13.89" length="40.00" shape="-1.25,71.21 -56.34,7.66"/>
    </edge>