<?xml version="1.0" encoding="UTF-8"?>

<!-- generated on 2023-01-12 07:48:29 by Eclipse SUMO netedit Version 1.14.1
-->

<routes xmlns:xsi="http://www.w3.org/2001/XMLSchema-instance" xsi:noNamespaceSchemaLocation="http://sumo.dlr.de/xsd/routes_file.xsd">
    <!-- VTypes -->
    <vType id="Bus" vClass="bus" color="blue"/>
</routes>
