<?xml version="1.0" encoding="UTF-8"?>

<!-- generated on 2023-01-20 12:48:35 by Eclipse SUMO netedit Version 1.14.1
<configuration xmlns:xsi="http://www.w3.org/2001/XMLSchema-instance" xsi:noNamespaceSchemaLocation="http://sumo.dlr.de/xsd/netconvertConfiguration.xsd">

    <input>
        <sumo-net-file value="C:\Users\RenatoPC\Desktop\Codigo\resources\SumoMaps\Red2Way2-41ms.net.xml"/>
    </input>

    <output>
        <output-file value="C:\Users\RenatoPC\Desktop\Codigo\resources\SumoMaps\Red2Way2-41ms.net.xml"/>
    </output>

    <processing>
        <geometry.min-radius.fix.railways value="false"/>
        <geometry.max-grade.fix value="false"/>
        <offset.disable-normalization value="true"/>
        <lefthand value="false"/>
    </processing>

    <junctions>
        <no-turnarounds value="true"/>
        <junctions.corner-detail value="5"/>
        <junctions.limit-turn-speed value="5.5"/>
        <rectangular-lane-cut value="false"/>
    </junctions>

    <pedestrian>
        <walkingareas value="false"/>
    </pedestrian>

</configuration>
-->

<net version="1.9" junctionCornerDetail="5" limitTurnSpeed="5.50" xmlns:xsi="http://www.w3.org/2001/XMLSchema-instance" xsi:noNamespaceSchemaLocation="http://sumo.dlr.de/xsd/net_file.xsd">

    <location netOffset="0.00,0.00" convBoundary="-541.97,-339.59,417.10,328.79" origBoundary="-10000000000.00,-10000000000.00,10000000000.00,10000000000.00" projParameter="!"/>

    <edge id=":J1_0" function="internal">
        <lane id=":J1_0_0" index="0" speed="3.65" length="4.67" shape="-534.41,330.14 -535.85,330.11 -536.62,329.65 -536.71,328.76 -536.13,327.44"/>
    </edge>
    <edge id=":J10_0" function="internal">
        <lane id=":J10_0_0" index="0" speed="6.09" length="9.06" shape="307.03,-87.76 305.72,-89.97 304.08,-91.06 302.12,-91.04 299.82,-89.89"/>
    </edge>
    <edge id=":J10_1" function="internal">
        <lane id=":J10_1_0" index="0" speed="41.00" length="33.58" shape="307.03,-87.76 303.33,-94.88 298.44,-102.09 293.01,-108.98 287.75,-115.11"/>
    </edge>
    <edge id=":J10_2" function="internal">
        <lane id=":J10_2_0" index="0" speed="41.00" length="37.28" shape="307.03,-87.76 304.43,-96.04 302.38,-105.99 300.88,-116.08 299.93,-124.76"/>
        <lane id=":J10_2_1" index="1" speed="41.00" length="37.28" shape="309.98,-88.98 307.43,-97.12 305.46,-106.75 304.03,-116.51 303.12,-125.04"/>
    </edge>
    <edge id=":J10_4" function="internal">
        <lane id=":J10_4_0" index="0" speed="17.48" length="13.80" shape="309.98,-88.98 309.78,-95.10 311.10,-102.67"/>
    </edge>
    <edge id=":J10_25" function="internal">
        <lane id=":J10_25_0" index="0" speed="17.48" length="21.32" shape="311.10,-102.67 311.46,-104.73 314.30,-114.97 317.59,-122.91"/>
    </edge>
    <edge id=":J10_5" function="internal">
        <lane id=":J10_5_0" index="0" speed="16.19" length="30.04" shape="323.17,-119.77 318.62,-110.70 315.89,-102.95 314.98,-96.53 315.90,-91.42"/>
    </edge>
    <edge id=":J10_6" function="internal">
        <lane id=":J10_6_0" index="0" speed="33.10" length="37.42" shape="323.17,-119.77 318.61,-112.23 312.74,-103.70 306.25,-95.73 299.82,-89.89"/>
        <lane id=":J10_6_1" index="1" speed="32.48" length="37.42" shape="320.38,-121.34 315.97,-113.96 310.44,-105.80 304.28,-98.20 298.00,-92.52"/>
    </edge>
    <edge id=":J10_8" function="internal">
        <lane id=":J10_8_0" index="0" speed="11.46" length="37.95" shape="320.38,-121.34 313.73,-112.68 306.35,-108.98 298.43,-110.43 290.15,-117.23"/>
    </edge>
    <edge id=":J10_9" function="internal">
        <lane id=":J10_9_0" index="0" speed="7.87" length="23.81" shape="320.38,-121.34 315.78,-116.94 310.28,-116.32 305.51,-119.14 303.12,-125.04"/>
    </edge>
    <edge id=":J10_10" function="internal">
        <lane id=":J10_10_0" index="0" speed="5.47" length="10.59" shape="309.50,-125.61 310.13,-122.12 311.23,-120.77 312.79,-121.55 314.80,-124.48"/>
    </edge>
    <edge id=":J10_11" function="internal">
        <lane id=":J10_11_0" index="0" speed="41.00" length="34.89" shape="309.50,-125.61 310.34,-117.37 311.60,-108.25 313.42,-99.27 315.90,-91.42"/>
    </edge>
    <edge id=":J10_12" function="internal">
        <lane id=":J10_12_0" index="0" speed="16.49" length="21.37" shape="309.50,-125.61 309.81,-113.13 308.50,-104.35"/>
        <lane id=":J10_12_1" index="1" speed="15.77" length="8.91" shape="306.31,-125.33 306.57,-116.42"/>
    </edge>
    <edge id=":J10_14" function="internal">
        <lane id=":J10_14_0" index="0" speed="7.99" length="2.58" shape="306.31,-125.33 305.84,-122.79"/>
    </edge>
    <edge id=":J10_26" function="internal">
        <lane id=":J10_26_0" index="0" speed="16.49" length="17.22" shape="308.50,-104.35 308.30,-103.01 304.97,-95.27 299.82,-89.89"/>
    </edge>
    <edge id=":J10_27" function="internal">
        <lane id=":J10_27_0" index="0" speed="15.77" length="26.32" shape="306.57,-116.42 306.64,-113.72 305.37,-104.39 302.49,-97.32 298.00,-92.52"/>
    </edge>
    <edge id=":J10_28" function="internal">
        <lane id=":J10_28_0" index="0" speed="7.99" length="21.71" shape="305.84,-122.79 305.10,-118.78 301.05,-114.70 295.60,-113.91 290.15,-117.23"/>
    </edge>
    <edge id=":J10_15" function="internal">
        <lane id=":J10_15_0" index="0" speed="5.61" length="11.07" shape="294.95,-121.46 297.47,-119.17 299.13,-118.95 299.96,-120.82 299.93,-124.76"/>
    </edge>
    <edge id=":J10_16" function="internal">
        <lane id=":J10_16_0" index="0" speed="9.42" length="25.23" shape="294.95,-121.46 300.35,-116.93 305.46,-115.92 310.27,-118.44 314.80,-124.48"/>
    </edge>
    <edge id=":J10_17" function="internal">
        <lane id=":J10_17_0" index="0" speed="41.00" length="36.21" shape="294.95,-121.46 300.48,-114.90 306.48,-107.10 311.95,-98.96 315.90,-91.42"/>
        <lane id=":J10_17_1" index="1" speed="41.00" length="36.21" shape="292.55,-119.35 297.99,-112.93 303.80,-105.43 309.08,-97.60 312.94,-90.20"/>
    </edge>
    <edge id=":J10_19" function="internal">
        <lane id=":J10_19_0" index="0" speed="11.23" length="31.58" shape="292.55,-119.35 298.97,-111.26 302.58,-104.10 302.54,-97.86 298.00,-92.52"/>
    </edge>
    <edge id=":J10_20" function="internal">
        <lane id=":J10_20_0" index="0" speed="9.08" length="20.26" shape="294.36,-97.79 295.96,-100.27 295.40,-103.98 292.66,-108.93 287.75,-115.11"/>
    </edge>
    <edge id=":J10_21" function="internal">
        <lane id=":J10_21_0" index="0" speed="14.22" length="28.54" shape="294.36,-97.79 297.53,-101.42 299.51,-107.13 300.32,-114.91 299.93,-124.76"/>
    </edge>
    <edge id=":J10_22" function="internal">
        <lane id=":J10_22_0" index="0" speed="31.20" length="34.56" shape="294.36,-97.79 300.34,-103.13 305.83,-110.00 310.70,-117.43 314.80,-124.48"/>
        <lane id=":J10_22_1" index="1" speed="31.84" length="34.56" shape="296.18,-95.16 302.31,-100.67 308.13,-107.90 313.34,-115.69 317.59,-122.91"/>
    </edge>
    <edge id=":J10_24" function="internal">
        <lane id=":J10_24_0" index="0" speed="8.98" length="21.08" shape="296.18,-95.16 301.52,-97.82 306.10,-97.88 309.90,-95.34 312.94,-90.20"/>
    </edge>
    <edge id=":J11_0" function="internal">
        <lane id=":J11_0_0" index="0" speed="8.20" length="11.55" shape="167.04,-252.10 164.42,-254.61 161.87,-256.09 159.40,-256.55 157.00,-255.99"/>
    </edge>
    <edge id=":J11_1" function="internal">
        <lane id=":J11_1_0" index="0" speed="9.02" length="20.70" shape="169.44,-254.22 166.26,-259.09 165.62,-263.58 167.54,-267.69 172.00,-271.42"/>
    </edge>
    <edge id=":J11_2" function="internal">
        <lane id=":J11_2_0" index="0" speed="6.17" length="9.05" shape="175.36,-265.97 173.41,-264.34 172.57,-262.54 172.85,-260.58 174.24,-258.45"/>
    </edge>
    <edge id=":J11_3" function="internal">
        <lane id=":J11_3_0" index="0" speed="41.00" length="20.71" shape="175.36,-265.97 170.19,-262.78 166.41,-260.56 162.52,-258.56 157.00,-255.99"/>
        <lane id=":J11_3_1" index="1" speed="41.00" length="20.71" shape="173.68,-268.69 168.56,-265.53 164.91,-263.38 161.14,-261.44 155.68,-258.91"/>
    </edge>
    <edge id=":J11_5" function="internal">
        <lane id=":J11_5_0" index="0" speed="41.00" length="19.90" shape="153.04,-264.74 158.35,-267.19 161.90,-269.02 165.35,-271.06 170.32,-274.14"/>
        <lane id=":J11_5_1" index="1" speed="41.00" length="19.90" shape="154.36,-261.82 159.77,-264.33 163.41,-266.20 166.94,-268.28 172.00,-271.42"/>
    </edge>
    <edge id=":J11_7" function="internal">
        <lane id=":J11_7_0" index="0" speed="10.57" length="4.11" shape="154.36,-261.82 158.34,-262.88"/>
    </edge>
    <edge id=":J11_8" function="internal">
        <lane id=":J11_8_0" index="0" speed="10.57" length="15.63" shape="158.34,-262.88 158.84,-263.02 163.25,-262.50 167.58,-260.27 171.84,-256.33"/>
    </edge>
    <edge id=":J12_0" function="internal">
        <lane id=":J12_0_0" index="0" speed="41.00" length="1.04" shape="-176.57,-104.95 -176.71,-104.88 -176.80,-104.83 -176.89,-104.77 -177.00,-104.66"/>
        <lane id=":J12_0_1" index="1" speed="12.02" length="1.04" shape="-177.89,-107.86 -178.31,-107.67 -178.58,-107.51 -178.84,-107.32 -179.18,-107.01"/>
    </edge>
    <edge id=":J12_2" function="internal">
        <lane id=":J12_2_0" index="0" speed="18.20" length="3.11" shape="-183.53,-111.70 -182.73,-112.42 -182.15,-112.88 -181.51,-113.24 -180.53,-113.69"/>
        <lane id=":J12_2_1" index="1" speed="15.42" length="3.11" shape="-181.35,-109.35 -180.78,-109.87 -180.37,-110.19 -179.91,-110.45 -179.21,-110.78"/>
    </edge>
    <edge id=":J13_0" function="internal">
        <lane id=":J13_0_0" index="0" speed="6.63" length="12.73" shape="282.47,-320.25 281.68,-324.92 280.32,-327.77 278.38,-328.78 275.86,-327.97"/>
    </edge>
    <edge id=":J13_1" function="internal">
        <lane id=":J13_1_0" index="0" speed="8.17" length="23.52" shape="285.66,-320.53 286.65,-326.89 290.29,-330.78 295.54,-331.66 301.39,-328.98"/>
    </edge>
    <edge id=":J13_2" function="internal">
        <lane id=":J13_2_0" index="0" speed="5.48" length="9.67" shape="297.39,-323.98 294.79,-325.61 293.03,-325.68 292.11,-324.18 292.03,-321.10"/>
    </edge>
    <edge id=":J13_3" function="internal">
        <lane id=":J13_3_0" index="0" speed="11.73" length="23.40" shape="297.39,-323.98 291.48,-327.88 285.91,-329.85 280.71,-329.88 275.86,-327.97"/>
        <lane id=":J13_3_1" index="1" speed="12.66" length="27.35" shape="299.39,-326.48 292.58,-330.93 286.11,-333.11 279.98,-333.03 274.18,-330.69"/>
    </edge>
    <edge id=":J13_5" function="internal">
        <lane id=":J13_5_0" index="0" speed="14.32" length="35.24" shape="270.82,-336.14 278.52,-339.34 286.51,-339.63 294.80,-337.01 303.39,-331.48"/>
        <lane id=":J13_5_1" index="1" speed="13.51" length="31.29" shape="272.50,-333.41 279.25,-336.19 286.31,-336.37 293.69,-333.97 301.39,-328.98"/>
    </edge>
    <edge id=":J13_7" function="internal">
        <lane id=":J13_7_0" index="0" speed="9.24" length="6.88" shape="272.50,-333.41 279.03,-335.59"/>
    </edge>
    <edge id=":J13_8" function="internal">
        <lane id=":J13_8_0" index="0" speed="9.24" length="19.24" shape="279.03,-335.59 283.95,-333.65 287.23,-328.45 288.84,-320.82"/>
    </edge>
    <edge id=":J14_0" function="internal">
        <lane id=":J14_0_0" index="0" speed="9.01" length="16.01" shape="391.66,-260.86 394.62,-257.75 396.07,-254.33 396.01,-250.63 394.43,-246.63"/>
        <lane id=":J14_0_1" index="1" speed="7.70" length="11.43" shape="389.67,-258.36 391.78,-256.14 392.81,-253.70 392.77,-251.05 391.64,-248.20"/>
    </edge>
    <edge id=":J14_2" function="internal">
        <lane id=":J14_2_0" index="0" speed="3.92" length="2.29" shape="386.06,-251.33 386.29,-251.90 386.30,-252.43 386.09,-252.92 385.67,-253.37"/>
        <lane id=":J14_2_1" index="1" speed="6.11" length="6.86" shape="388.85,-249.77 389.53,-251.48 389.55,-253.07 388.93,-254.53 387.67,-255.87"/>
    </edge>
    <edge id=":J15_0" function="internal">
        <lane id=":J15_0_0" index="0" speed="41.00" length="35.04" shape="224.66,205.49 193.77,188.82"/>
        <lane id=":J15_0_1" index="1" speed="41.00" length="35.04" shape="226.12,202.65 195.34,186.03"/>
    </edge>
    <edge id=":J15_2" function="internal">
        <lane id=":J15_2_0" index="0" speed="17.65" length="7.83" shape="226.12,202.65 219.59,198.32"/>
    </edge>
    <edge id=":J15_3" function="internal">
        <lane id=":J15_3_0" index="0" speed="8.82" length="6.68" shape="226.12,202.65 220.61,198.87"/>
    </edge>
    <edge id=":J15_16" function="internal">
        <lane id=":J15_16_0" index="0" speed="17.65" length="26.27" shape="219.59,198.32 219.16,198.03 213.57,192.06 209.37,184.74 206.55,176.06"/>
    </edge>
    <edge id=":J15_17" function="internal">
        <lane id=":J15_17_0" index="0" speed="8.82" length="19.11" shape="220.61,198.87 219.59,198.17 217.41,193.69 219.60,189.22 226.14,184.76"/>
    </edge>
    <edge id=":J15_4" function="internal">
        <lane id=":J15_4_0" index="0" speed="5.57" length="9.37" shape="229.05,190.45 226.68,192.08 225.88,193.70 226.67,195.33 229.05,196.95"/>
    </edge>
    <edge id=":J15_5" function="internal">
        <lane id=":J15_5_0" index="0" speed="16.86" length="36.85" shape="229.05,190.45 220.49,193.61 211.75,194.39 202.85,192.79 193.77,188.82"/>
        <lane id=":J15_5_1" index="1" speed="16.13" length="33.69" shape="227.60,187.61 219.79,190.47 211.82,191.16 203.67,189.68 195.34,186.03"/>
    </edge>
    <edge id=":J15_7" function="internal">
        <lane id=":J15_7_0" index="0" speed="10.41" length="29.48" shape="227.60,187.61 219.71,190.19 213.73,188.99 209.42,184.20 206.55,176.06"/>
    </edge>
    <edge id=":J15_8" function="internal">
        <lane id=":J15_8_0" index="0" speed="8.01" length="16.94" shape="212.79,174.64 214.55,179.58 217.12,182.44 220.50,183.21 224.68,181.91"/>
    </edge>
    <edge id=":J15_9" function="internal">
        <lane id=":J15_9_0" index="0" speed="16.16" length="28.52" shape="212.79,174.64 215.15,181.96 218.65,188.12 223.28,193.12 229.05,196.95"/>
        <lane id=":J15_9_1" index="1" speed="16.92" length="31.31" shape="209.67,175.35 212.26,183.35 216.11,190.09 221.22,195.57 227.59,199.80"/>
    </edge>
    <edge id=":J15_11" function="internal">
        <lane id=":J15_11_0" index="0" speed="8.21" length="23.46" shape="209.67,175.35 209.58,181.78 206.57,186.14 201.54,187.78 195.34,186.03"/>
    </edge>
    <edge id=":J15_12" function="internal">
        <lane id=":J15_12_0" index="0" speed="5.50" length="9.60" shape="198.49,180.45 201.28,181.62 203.04,181.40 203.75,179.78 203.43,176.77"/>
    </edge>
    <edge id=":J15_13" function="internal">
        <lane id=":J15_13_0" index="0" speed="15.00" length="29.07" shape="198.49,180.45 206.65,184.35 213.98,186.37 220.48,186.50 226.14,184.76"/>
    </edge>
    <edge id=":J15_14" function="internal">
        <lane id=":J15_14_0" index="0" speed="41.00" length="34.80" shape="198.49,180.45 229.05,196.95"/>
        <lane id=":J15_14_1" index="1" speed="41.00" length="34.80" shape="196.91,183.24 227.59,199.80"/>
    </edge>
    <edge id=":J2_0" function="internal">
        <lane id=":J2_0_0" index="0" speed="13.64" length="16.79" shape="-318.26,202.00 -323.10,201.24 -326.55,201.44 -329.79,202.75 -334.00,205.33"/>
    </edge>
    <edge id=":J2_1" function="internal">
        <lane id=":J2_1_0" index="0" speed="19.90" length="29.79" shape="-318.26,202.00 -325.31,199.43 -331.73,195.12 -337.49,189.72 -342.55,183.87"/>
        <lane id=":J2_1_1" index="1" speed="19.20" length="29.79" shape="-317.63,198.87 -324.39,196.47 -330.17,192.55 -335.29,187.54 -340.05,181.87"/>
    </edge>
    <edge id=":J2_3" function="internal">
        <lane id=":J2_3_0" index="0" speed="10.87" length="5.31" shape="-317.63,198.87 -322.43,196.62"/>
    </edge>
    <edge id=":J2_16" function="internal">
        <lane id=":J2_16_0" index="0" speed="10.87" length="20.87" shape="-322.43,196.62 -325.42,192.19 -326.59,185.58 -325.94,176.79"/>
    </edge>
    <edge id=":J2_4" function="internal">
        <lane id=":J2_4_0" index="0" speed="8.70" length="16.40" shape="-319.62,177.78 -320.23,183.85 -319.89,188.34 -318.60,191.26 -316.36,192.59"/>
    </edge>
    <edge id=":J2_5" function="internal">
        <lane id=":J2_5_0" index="0" speed="17.50" length="31.96" shape="-319.62,177.78 -321.72,187.15 -324.82,194.86 -328.91,200.92 -334.00,205.33"/>
        <lane id=":J2_5_1" index="1" speed="16.76" length="29.26" shape="-322.78,177.28 -324.71,185.98 -327.51,193.10 -331.19,198.66 -335.73,202.64"/>
    </edge>
    <edge id=":J2_7" function="internal">
        <lane id=":J2_7_0" index="0" speed="8.21" length="23.47" shape="-322.78,177.28 -325.26,183.23 -329.67,186.16 -334.95,185.80 -340.05,181.87"/>
    </edge>
    <edge id=":J2_8" function="internal">
        <lane id=":J2_8_0" index="0" speed="5.50" length="9.61" shape="-335.06,177.87 -332.90,180.00 -331.18,180.45 -329.92,179.21 -329.10,176.29"/>
    </edge>
    <edge id=":J2_9" function="internal">
        <lane id=":J2_9_0" index="0" speed="17.74" length="25.53" shape="-335.06,177.87 -330.87,183.18 -327.04,187.41 -322.54,190.55 -316.36,192.59"/>
        <lane id=":J2_9_1" index="1" speed="18.48" length="25.53" shape="-337.55,179.87 -333.08,185.36 -328.60,189.98 -323.46,193.51 -316.99,195.73"/>
    </edge>
    <edge id=":J2_11" function="internal">
        <lane id=":J2_11_0" index="0" speed="10.42" length="7.90" shape="-337.55,179.87 -332.98,186.32"/>
    </edge>
    <edge id=":J2_17" function="internal">
        <lane id=":J2_17_0" index="0" speed="10.42" length="18.88" shape="-332.98,186.32 -332.65,186.79 -330.27,192.79 -331.08,198.03 -335.73,202.64"/>
    </edge>
    <edge id=":J2_12" function="internal">
        <lane id=":J2_12_0" index="0" speed="8.00" length="15.34" shape="-339.18,197.25 -337.57,195.25 -337.59,192.35 -339.25,188.56 -342.55,183.87"/>
    </edge>
    <edge id=":J2_13" function="internal">
        <lane id=":J2_13_0" index="0" speed="15.17" length="23.88" shape="-339.18,197.25 -335.73,194.13 -332.89,189.59 -330.69,183.64 -329.10,176.29"/>
        <lane id=":J2_13_1" index="1" speed="15.98" length="26.57" shape="-337.46,199.95 -333.46,196.39 -330.20,191.35 -327.70,184.81 -325.94,176.79"/>
    </edge>
    <edge id=":J2_15" function="internal">
        <lane id=":J2_15_0" index="0" speed="15.48" length="21.74" shape="-337.46,199.95 -332.09,196.73 -327.74,195.07 -323.14,194.79 -316.99,195.73"/>
    </edge>
    <edge id=":J3_0" function="internal">
        <lane id=":J3_0_0" index="0" speed="9.22" length="12.67" shape="-107.61,238.08 -109.91,240.47 -112.53,241.97 -115.49,242.59 -118.79,242.33"/>
        <lane id=":J3_0_1" index="1" speed="7.87" length="9.05" shape="-110.17,236.16 -111.81,237.86 -113.69,238.94 -115.80,239.38 -118.16,239.20"/>
    </edge>
    <edge id=":J3_2" function="internal">
        <lane id=":J3_2_0" index="0" speed="3.99" length="1.81" shape="-116.89,232.92 -116.42,232.96 -116.00,232.87 -115.62,232.66 -115.29,232.32"/>
        <lane id=":J3_2_1" index="1" speed="6.24" length="5.43" shape="-117.52,236.06 -116.11,236.17 -114.84,235.91 -113.72,235.26 -112.73,234.24"/>
    </edge>
    <edge id=":J4_0" function="internal">
        <lane id=":J4_0_0" index="0" speed="7.42" length="12.93" shape="-282.38,8.14 -286.84,7.36 -290.16,7.61 -292.34,8.90 -293.36,11.23"/>
    </edge>
    <edge id=":J4_1" function="internal">
        <lane id=":J4_1_0" index="0" speed="41.00" length="25.43" shape="-282.38,8.14 -306.97,1.47"/>
        <lane id=":J4_1_1" index="1" speed="41.00" length="25.43" shape="-281.58,5.05 -306.06,-1.60"/>
    </edge>
    <edge id=":J4_3" function="internal">
        <lane id=":J4_3_0" index="0" speed="8.81" length="6.04" shape="-281.58,5.05 -287.18,2.79"/>
    </edge>
    <edge id=":J4_16" function="internal">
        <lane id=":J4_16_0" index="0" speed="8.81" length="18.96" shape="-287.18,2.79 -288.61,2.22 -291.69,-1.62 -290.80,-6.45 -285.96,-12.28"/>
    </edge>
    <edge id=":J4_4" function="internal">
        <lane id=":J4_4_0" index="0" speed="5.62" length="9.29" shape="-281.60,-7.59 -283.41,-5.42 -283.74,-3.63 -282.59,-2.20 -279.98,-1.15"/>
    </edge>
    <edge id=":J4_5" function="internal">
        <lane id=":J4_5_0" index="0" speed="18.30" length="24.30" shape="-281.60,-7.59 -286.81,-3.25 -291.23,0.42 -294.56,4.66 -296.52,10.73"/>
    </edge>
    <edge id=":J4_6" function="internal">
        <lane id=":J4_6_0" index="0" speed="14.19" length="27.65" shape="-281.60,-7.59 -287.49,-3.38 -294.53,-0.15 -301.44,1.63 -306.97,1.47"/>
        <lane id=":J4_6_1" index="1" speed="13.36" length="24.41" shape="-283.78,-9.94 -289.00,-6.15 -295.21,-3.19 -301.27,-1.52 -306.06,-1.60"/>
    </edge>
    <edge id=":J4_8" function="internal">
        <lane id=":J4_8_0" index="0" speed="11.60" length="18.25" shape="-304.26,-7.75 -300.77,-7.45 -296.92,-8.50 -292.71,-10.89 -288.13,-14.63"/>
        <lane id=":J4_8_1" index="1" speed="12.57" length="21.54" shape="-305.16,-4.67 -300.83,-4.23 -296.18,-5.35 -291.22,-8.04 -285.96,-12.28"/>
    </edge>
    <edge id=":J4_10" function="internal">
        <lane id=":J4_10_0" index="0" speed="41.00" length="25.27" shape="-305.16,-4.67 -280.78,1.95"/>
    </edge>
    <edge id=":J4_11" function="internal">
        <lane id=":J4_11_0" index="0" speed="9.79" length="4.08" shape="-305.16,-4.67 -301.47,-2.93"/>
    </edge>
    <edge id=":J4_17" function="internal">
        <lane id=":J4_17_0" index="0" speed="9.79" length="15.53" shape="-301.47,-2.93 -300.65,-2.55 -297.71,0.73 -296.33,5.16 -296.52,10.73"/>
    </edge>
    <edge id=":J4_12" function="internal">
        <lane id=":J4_12_0" index="0" speed="7.22" length="10.23" shape="-302.84,9.74 -302.70,6.69 -303.34,4.29 -304.76,2.55 -306.97,1.47"/>
    </edge>
    <edge id=":J4_13" function="internal">
        <lane id=":J4_13_0" index="0" speed="19.96" length="27.96" shape="-302.84,9.74 -300.92,2.72 -297.65,-3.60 -293.31,-9.34 -288.13,-14.63"/>
        <lane id=":J4_13_1" index="1" speed="19.25" length="27.96" shape="-299.68,10.23 -297.91,3.51 -294.98,-2.18 -290.98,-7.29 -285.96,-12.28"/>
    </edge>
    <edge id=":J4_15" function="internal">
        <lane id=":J4_15_0" index="0" speed="9.58" length="22.34" shape="-299.68,10.23 -297.24,6.03 -292.35,3.07 -286.40,1.63 -280.78,1.95"/>
    </edge>
    <edge id=":J5_0" function="internal">
        <lane id=":J5_0_0" index="0" speed="8.61" length="28.79" shape="-532.99,-53.61 -535.86,-60.76 -534.10,-67.22 -528.80,-71.31 -521.09,-71.37"/>
        <lane id=":J5_0_1" index="1" speed="7.36" length="20.57" shape="-530.49,-55.62 -532.54,-60.72 -531.28,-65.33 -527.50,-68.25 -522.00,-68.30"/>
    </edge>
    <edge id=":J5_2" function="internal">
        <lane id=":J5_2_0" index="0" speed="4.32" length="5.90" shape="-523.80,-62.16 -525.73,-62.53 -526.66,-62.24 -526.58,-61.27 -525.50,-59.62"/>
        <lane id=":J5_2_1" index="1" speed="6.87" length="17.69" shape="-522.90,-65.23 -528.71,-66.36 -531.49,-65.47 -531.25,-62.56 -527.99,-57.62"/>
    </edge>
    <edge id=":J6_0" function="internal">
        <lane id=":J6_0_0" index="0" speed="9.31" length="17.62" shape="18.14,89.84 13.33,87.79 9.08,87.40 5.41,88.66 2.32,91.57"/>
    </edge>
    <edge id=":J6_1" function="internal">
        <lane id=":J6_1_0" index="0" speed="41.00" length="28.50" shape="18.14,89.84 11.79,86.44 5.58,83.57 -0.81,81.14 -7.71,79.10"/>
        <lane id=":J6_1_1" index="1" speed="41.00" length="28.50" shape="19.71,87.06 13.24,83.61 6.77,80.62 0.11,78.09 -6.91,76.00"/>
    </edge>
    <edge id=":J6_3" function="internal">
        <lane id=":J6_3_0" index="0" speed="8.81" length="4.62" shape="19.71,87.06 16.01,84.29"/>
    </edge>
    <edge id=":J6_16" function="internal">
        <lane id=":J6_16_0" index="0" speed="8.81" length="20.61" shape="16.01,84.29 13.56,82.46 11.57,77.94 13.74,73.52 20.09,69.18"/>
    </edge>
    <edge id=":J6_4" function="internal">
        <lane id=":J6_4_0" index="0" speed="5.61" length="9.32" shape="22.99,74.88 20.65,76.48 19.85,78.12 20.58,79.78 22.86,81.48"/>
    </edge>
    <edge id=":J6_5" function="internal">
        <lane id=":J6_5_0" index="0" speed="27.67" length="27.55" shape="22.99,74.88 16.85,78.28 11.57,81.93 6.83,86.22 2.32,91.57"/>
        <lane id=":J6_5_1" index="1" speed="28.40" length="27.55" shape="21.54,72.03 15.22,75.57 9.56,79.54 4.44,84.16 -0.24,89.65"/>
    </edge>
    <edge id=":J6_7" function="internal">
        <lane id=":J6_7_0" index="0" speed="18.80" length="29.33" shape="21.54,72.03 14.70,74.92 7.61,76.65 0.37,77.07 -6.91,76.00"/>
    </edge>
    <edge id=":J6_8" function="internal">
        <lane id=":J6_8_0" index="0" speed="17.33" length="24.88" shape="-5.31,69.80 1.26,70.95 6.95,70.71 12.50,69.14 18.63,66.33"/>
    </edge>
    <edge id=":J6_9" function="internal">
        <lane id=":J6_9_0" index="0" speed="41.00" length="30.15" shape="-5.31,69.80 1.95,71.99 9.14,74.74 16.14,77.94 22.86,81.48"/>
        <lane id=":J6_9_1" index="1" speed="41.00" length="30.15" shape="-6.11,72.90 1.03,75.04 7.95,77.68 14.69,80.77 21.29,84.27"/>
    </edge>
    <edge id=":J6_11" function="internal">
        <lane id=":J6_11_0" index="0" speed="8.84" length="6.53" shape="-6.11,72.90 -0.08,75.39"/>
    </edge>
    <edge id=":J6_17" function="internal">
        <lane id=":J6_17_0" index="0" speed="8.84" length="16.27" shape="-0.08,75.39 0.05,75.44 3.08,79.08 2.98,83.82 -0.24,89.65"/>
    </edge>
    <edge id=":J6_12" function="internal">
        <lane id=":J6_12_0" index="0" speed="5.83" length="9.13" shape="-5.36,85.81 -4.07,83.47 -4.03,81.57 -5.24,80.11 -7.71,79.10"/>
    </edge>
    <edge id=":J6_13" function="internal">
        <lane id=":J6_13_0" index="0" speed="29.80" length="30.42" shape="-5.36,85.81 -0.33,80.03 5.55,74.77 11.97,70.16 18.63,66.33"/>
        <lane id=":J6_13_1" index="1" speed="29.11" length="30.42" shape="-2.80,87.73 2.06,82.09 7.55,77.16 13.60,72.87 20.09,69.18"/>
    </edge>
    <edge id=":J6_15" function="internal">
        <lane id=":J6_15_0" index="0" speed="11.42" length="26.98" shape="-2.80,87.73 2.07,83.02 7.71,80.88 14.12,81.29 21.29,84.27"/>
    </edge>
    <edge id=":J7_0" function="internal">
        <lane id=":J7_0_0" index="0" speed="8.98" length="17.01" shape="392.83,95.07 393.98,99.54 393.48,103.40 391.35,106.66 387.58,109.31"/>
        <lane id=":J7_0_1" index="1" speed="7.67" length="12.15" shape="389.87,96.29 390.69,99.48 390.34,102.24 388.82,104.57 386.12,106.46"/>
    </edge>
    <edge id=":J7_2" function="internal">
        <lane id=":J7_2_0" index="0" speed="3.91" length="2.43" shape="383.20,100.76 383.74,100.38 384.05,99.92 384.12,99.37 383.95,98.73"/>
        <lane id=":J7_2_1" index="1" speed="6.09" length="7.29" shape="384.66,103.61 386.28,102.48 387.19,101.08 387.40,99.42 386.91,97.51"/>
    </edge>
    <edge id=":J8_0" function="internal">
        <lane id=":J8_0_0" index="0" speed="6.04" length="9.07" shape="165.26,8.94 164.34,6.53 162.90,5.20 160.97,4.95 158.52,5.79"/>
    </edge>
    <edge id=":J8_1" function="internal">
        <lane id=":J8_1_0" index="0" speed="11.13" length="20.15" shape="168.38,8.23 167.57,2.22 168.10,-2.84 169.97,-6.94 173.17,-10.09"/>
    </edge>
    <edge id=":J8_2" function="internal">
        <lane id=":J8_2_0" index="0" speed="8.87" length="12.53" shape="176.81,-4.83 175.11,-3.02 174.17,-0.47 174.01,2.80 174.62,6.81"/>
    </edge>
    <edge id=":J8_3" function="internal">
        <lane id=":J8_3_0" index="0" speed="41.00" length="20.96" shape="176.81,-4.83 171.74,-1.41 167.92,0.91 163.98,3.01 158.52,5.79"/>
        <lane id=":J8_3_1" index="1" speed="41.00" length="20.96" shape="174.99,-7.46 169.97,-4.08 166.29,-1.83 162.47,0.20 157.07,2.94"/>
    </edge>
    <edge id=":J8_5" function="internal">
        <lane id=":J8_5_0" index="0" speed="41.00" length="20.11" shape="154.16,-2.77 159.43,-5.43 163.01,-7.32 166.46,-9.42 171.35,-12.73"/>
        <lane id=":J8_5_1" index="1" speed="41.00" length="20.11" shape="155.62,0.09 160.96,-2.62 164.65,-4.57 168.21,-6.74 173.17,-10.09"/>
    </edge>
    <edge id=":J8_7" function="internal">
        <lane id=":J8_7_0" index="0" speed="8.94" length="5.06" shape="155.62,0.09 160.40,-1.55"/>
    </edge>
    <edge id=":J8_8" function="internal">
        <lane id=":J8_8_0" index="0" speed="8.94" length="16.33" shape="160.40,-1.55 161.38,-1.88 165.95,-1.30 169.32,1.84 171.50,7.52"/>
    </edge>
    <edge id=":J9_0" function="internal">
        <lane id=":J9_0_0" index="0" speed="3.65" length="4.67" shape="417.83,297.59 418.53,298.85 418.52,299.74 417.80,300.27 416.37,300.43"/>
    </edge>

    <edge id="-E20" from="J2" to="J1" priority="-1" length="800.00">
        <lane id="-E20_0" index="0" speed="41.00" length="800.00" shape="-334.00,205.33 -532.68,332.83"/>
        <lane id="-E20_1" index="1" speed="41.00" length="800.00" shape="-335.73,202.64 -534.41,330.14"/>
    </edge>
    <edge id="-E21" from="J3" to="J2" priority="-1" length="200.00">
        <lane id="-E21_0" index="0" speed="41.00" length="200.00" shape="-118.79,242.33 -318.26,202.00"/>
        <lane id="-E21_1" index="1" speed="41.00" length="200.00" shape="-118.16,239.20 -317.63,198.87"/>
    </edge>
    <edge id="-E22" from="J6" to="J3" priority="-1" length="300.00">
        <lane id="-E22_0" index="0" speed="41.00" length="300.00" shape="2.32,91.57 -107.61,238.08"/>
        <lane id="-E22_1" index="1" speed="41.00" length="300.00" shape="-0.24,89.65 -110.17,236.16"/>
    </edge>
    <edge id="-E23" from="J4" to="J2" priority="-1" length="300.00">
        <lane id="-E23_0" index="0" speed="41.00" length="300.00" shape="-293.36,11.23 -319.62,177.78"/>
        <lane id="-E23_1" index="1" speed="41.00" length="300.00" shape="-296.52,10.73 -322.78,177.28"/>
    </edge>
    <edge id="-E24" from="J6" to="J4" priority="-1" length="400.00">